22

C      -0.054358877019910      1.818292036192819      0.978000695886790
C      -0.885130400871850      0.756600608199369      1.646415371213540
C      -0.008396110223220     -0.265458063823011      2.008732505439470
H      -1.784426625062059      0.987833627452589      2.204802340157830
C       1.193718366157370     -0.113870754970751      1.298685222592910
H      -0.262245946600830     -1.114433596881321      2.628290239716101
C       1.120422421893490      1.020418721708359      0.528661857645340
H       1.993221352956530     -0.841390399401481      1.280148592263270
H       1.895057938714940      1.397305068361709     -0.125190678932640
H       0.287890694966570      2.516734345025499      1.757598249308760
H      -0.555458155466170      2.403955993682249      0.209272238163790
C      -0.700163294135400     -0.034993348405441     -1.014957068363840
C      -1.714487045356380      0.033886352619679     -0.075679580887860
H      -2.449619693011539      0.827769164010049     -0.151553653547790
H      -2.075477670016270     -0.904102434507051      0.329249252262580
C       0.037995126778830     -1.276911931387211     -1.164452438837120
H      -0.512837261450720      0.773727152348119     -1.710901131945380
O      -0.108000216134870     -2.202618371901111     -0.379100983467770
C       0.980229405324210     -1.405757663678131     -2.335145058936740
H       1.363078896085740     -0.442711049025371     -2.678088653987070
H       0.434233439777440     -1.866991205201431     -3.164376608054930
H       1.804753652694100     -2.067284250418121     -2.070410707689250
22

C       0.065514491137432      1.973909554589706      0.969417570779242
C      -0.699728119531199      0.922159186775699      1.725115980714825
C       0.134188157601476     -0.163473607364210      1.880442175932365
H      -1.570254074093479      1.022344132036798      2.362921665503562
C       1.167109639072391     -0.059077117338074      0.957434639418602
H       0.010210959774872     -1.036903587063002      2.452393326507611
C       1.113333538118770      1.157508237967131      0.351296256411750
H       1.900165020761601     -0.864403141577642      0.790022536718935
H       1.836297531666155      1.530821786020936     -0.390055296984046
H       0.570574603622349      2.580867008590746      1.763191715234486
H      -0.451020233904080      2.684595209943875      0.356278882281576
C      -0.701914951018645     -0.005965036763106     -1.067946618570991
C      -1.711609080497591      0.185580937286688     -0.164425799064304
H      -2.348600462868043      1.060142948162261     -0.149180549471746
H      -2.072354674791775     -0.673611866555329      0.397461350574630
C       0.100892442712571     -1.255541462705768     -1.200003159839281
H      -0.483107193030171      0.748555509131699     -1.804149767488775
O       0.001555170581081     -2.207937261665062     -0.454492370738862
C       1.096725236676503     -1.428854188274904     -2.347312179348363
H       1.405412668119359     -0.461360685871279     -2.759758182581085
H       0.644645279809868     -2.101104025869095     -3.085009009577817
H       1.946100930115606     -1.977973778662348     -1.911137476963450
22

C       0.199963574327843      2.076293170578988      1.002670377466989
C      -0.449609789467365      1.097462661503954      1.890035735193455
C       0.228361521639888     -0.080557964547101      1.793476529618063
H      -1.285921059903594      1.370916935439265      2.553028381145227
C       1.351951135098636      0.079996734888347      0.803873078531051
H       0.000003033203090     -0.964981109174139      2.293536933009543
C       1.187294829957734      1.270209393029873      0.166203782808995
H       2.118129657234118     -0.665458295160915      0.537206028673107
H       1.801473597839501      1.690513440029286     -0.710500340289020
H       0.753153542365563      2.860346243676533      1.602135330212876
H      -0.504730724615833      2.759068452068520      0.549212330415952
C      -0.693760200411114      0.005860650790748     -1.255203465891487
C      -1.696789909939119      0.175844514778406     -0.404970618045876
H      -2.254482828908270      1.098105011849926     -0.439381050718148
H      -2.118968144126051     -0.621831224664220      0.181931751164980
C       0.084606023485632     -1.283157356692799     -1.287014891964182
H      -0.489657500677276      0.739562929691220     -2.017852144571374
O      -0.040156414677134     -2.156774920900536     -0.454708506388609
C       1.150936886586760     -1.376226272807673     -2.362847403611438
H       1.298373507156325     -0.412118901718588     -2.855229039534488
H       0.830169756465439     -2.151794058612336     -3.071105532042086
H       2.056709792485662     -1.803295499750459     -1.949548234918053
22

C       0.293507458483350      2.195504804679413      0.943678901322098
C      -0.159765612188625      1.218164848847325      1.979642649070240
C       0.500360799388509      0.043296848880104      1.840097491679351
H      -0.941815904825736      1.378657224814437      2.761737270144977
C       1.468156048594793      0.211303623850313      0.746261166675932
H       0.395481936762380     -0.892698550433367      2.366612223061766
C       1.360447664601117      1.461845704559215      0.232644258291226
H       2.178529301093724     -0.571155927739993      0.476156274511554
H       1.977302389101016      1.842023100435880     -0.667936541341508
H       0.699134270091974      3.205406300954920      1.291887964063193
H      -0.486273892566341      2.614762571440846      0.326018975488197
C      -0.782013190410950     -0.051911912407635     -1.532193997184934
C      -1.801509287021400      0.125310467917794     -0.737409496151969
H      -2.517737771150921      0.933923423182734     -0.867603106059470
H      -1.988698293937867     -0.588053839096244      0.067549024070159
C       0.082407825424894     -1.251222453761554     -1.384094916177686
H      -0.485919448009419      0.696427613758517     -2.239800069845678
O      -0.123557839402563     -2.064140525530803     -0.504614591588471
C       1.206466637107835     -1.357512407462977     -2.418964490129697
H       1.266118769782955     -0.375746006972621     -2.925937284831839
H       0.993484726943019     -2.215163868802330     -3.070305284179805
H       2.127118698948157     -1.691565330929124     -1.934062930255985
22

C       0.389227170020459      2.252598923253206      0.972567130550952
C       0.034451060405476      1.325055494017658      2.040649133924398
C       0.799099397208056      0.240840259189886      1.927155685765508
H      -0.737252234715907      1.425810656125787      2.843230267607623
C       1.675857162325384      0.371377552467843      0.763142002400520
H       0.857657052695774     -0.673422098747570      2.534269282567917
C       1.513995651703991      1.628574236830038      0.275817206780376
H       2.355028115539733     -0.400487698162851      0.436544356918311
H       2.155003883265967      2.092388590463894     -0.576970905878196
H       0.485518471992500      3.345355911843959      1.263356870206476
H      -0.386491694698652      2.296161304304531      0.209116417295636
C      -0.906175140975577     -0.052689104516443     -1.799029325621104
C      -1.962642611793604      0.079514626542697     -1.068103602921123
H      -2.610557117765206      0.965518231840476     -1.104943809947770
H      -2.145481234569427     -0.683621635317362     -0.313018904324805
C       0.059066128392497     -1.201142514135691     -1.546343374830215
H      -0.693012185639107      0.618393343629655     -2.618971021920060
O      -0.141938601878018     -1.992632510151879     -0.646449528141811
C       1.269974833554852     -1.398374428457626     -2.441649274700594
H       1.459955401288466     -0.465861169492696     -3.029540379374918
H       1.167491695808548     -2.312185124090210     -3.048391011934512
H       2.090615299749520     -1.718861831028738     -1.781771020270785
22

C       0.466581385842522      2.365651269747493      0.994187056094169
C       0.281632928212800      1.432683365943338      2.128475667315404
C       1.040344094411007      0.351031959917331      2.005392247789217
H      -0.477513599946234      1.549411708491514      2.891990477590644
C       2.001045755848394      0.593961656940879      0.845915182345133
H       1.032532139446478     -0.568197763960729      2.665257771698003
C       1.655190669907144      1.773749957460097      0.252672299073814
H       2.746698459985296     -0.123859871226656      0.524094377475497
H       2.207602951081218      2.183795609071125     -0.673585440032857
H       0.551535798870333      3.406372571093388      1.372336851339178
H      -0.459616734367137      2.310356236728500      0.412666609372859
C      -1.012627725967119     -0.157744685028686     -2.061277515845844
C      -2.106505357554879      0.036419919601878     -1.383853848886517
H      -2.827437930451462      0.849539226703862     -1.599313153210760
H      -2.402502658093094     -0.656849332367169     -0.589811272428240
C      -0.003816841682300     -1.193369998718352     -1.700193028800845
H      -0.734866655634108      0.508248476344796     -2.889889078146715
O      -0.193419144602662     -1.919051379314227     -0.774681117026407
C       1.301733628393326     -1.364310260037543     -2.491951528052219
H       1.494152163410680     -0.536896923824170     -3.228604389553752
H       1.168025218406851     -2.352266116957991     -3.020617837020021
H       2.112713579474538     -1.665108977941708     -1.803140759945092
22

C       0.630535537357968      2.484806196242015      1.006493501739132
C       0.416252307122665      1.468851356347742      2.222916727523053
C       1.360509079833224      0.525586930352711      2.086004205932687
H      -0.319187193781320      1.574352419923972      3.002279255449150
C       2.201702593984263      0.776191243104254      0.896059438758473
H       1.564244484078405     -0.403866704094278      2.719926715804572
C       1.780675253102205      1.898673819074960      0.311883694780032
H       3.097146971146272      0.218293098663376      0.730003992535303
H       2.228143548300836      2.371312541467665     -0.551751386967229
H       0.918068469999163      3.525809208793072      1.248844158814728
H      -0.240061383881903      2.465095351825042      0.348591788291846
C      -1.075142052877050     -0.231216602777228     -2.370374642409887
C      -2.204642634673512     -0.048424089191013     -1.738119481671801
H      -3.024409317652317      0.624618155428955     -2.069921774886200
H      -2.460440709898903     -0.530051752009444     -0.796375860431013
C      -0.057033010219292     -1.209853868800703     -1.804044279459589
H      -0.894923282915330      0.244211400886247     -3.358804849690782
O      -0.270544627651757     -1.844851961814103     -0.816094536701987
C       1.257446813031633     -1.321225673653648     -2.607317581124394
H       1.280642586106124     -0.490891613737605     -3.371733105199868
H       1.400881373446197     -2.326217546123843     -3.098303291672329
H       2.068767216799072     -1.251163802536374     -1.851900209740482
22

C       0.744601431826706      2.537873418872691      1.070271658115048
C       0.592277745219759      1.547107428210786      2.177338676314526
C       1.647294347630601      0.718463945874529      2.186545636856547
H      -0.214821292822385      1.654275386871529      2.871419679841521
C       2.433728453615841      0.957370952322671      1.003293865944915
H       1.766406835232506     -0.077726659431838      2.985309621020071
C       1.962921802056589      2.034693708745634      0.373877817301140
H       3.195709337777657      0.252041966703845      0.707973774221440
H       2.332704392508642      2.438359589317482     -0.515202683856392
H       0.932335810662171      3.474324837264471      1.667569414294891
H      -0.186341652991510      2.582997128558308      0.551839668739913
C      -1.154548167860517     -0.354713932089403     -2.627656011106622
C      -2.325315301701300     -0.141575623358389     -2.066478734407748
H      -3.133360688926025      0.493396279847396     -2.467401396355930
H      -2.639896672035385     -0.542965434390925     -1.102506756040203
C      -0.122653952699338     -1.192452660359540     -1.970783070944087
H      -0.855529448905254      0.186982253447294     -3.564830203873150
O      -0.305554980421053     -1.739238813346570     -0.919877103643156
C       1.212962802416742     -1.279041515874317     -2.692665424058268
H       1.277799391067856     -0.674568313186231     -3.658693557336853
H       1.508944512565024     -2.356209519198412     -2.868286283261274
H       1.910233242792871     -0.910469924680096     -1.876066825563609
22

C       0.874659616727529      2.629801945790607      1.112058925899135
C       0.774821772291127      1.657297099779305      2.303504938908370
C       1.836355466197826      0.812244423016288      2.191606386885598
H      -0.084390253355331      1.604950420446157      2.956403267623909
C       2.721081801808857      1.205350438859654      1.098875963760276
H       1.976253648863098      0.030579341687114      2.985992996661657
C       2.125915188770848      2.141131755822558      0.369702223706344
H       3.732016821849474      0.832211821223273      0.918432186295802
H       2.487987926735102      2.648340456015795     -0.452504106601133
H       1.032349998434528      3.685577522397060      1.523572263382309
H       0.007829380713283      2.660651712565049      0.472293465264004
C      -1.251725198435852     -0.421262250682129     -2.865730695903281
C      -2.463141412790783     -0.246381217275586     -2.345861466429400
H      -3.296709164530556      0.296576445442731     -2.763539037684768
H      -2.703679041214131     -0.722304933742485     -1.416040406441985
C      -0.176230321853536     -1.168282363722130     -2.129967303168651
H      -1.030252146857312     -0.035894304963495     -3.902973709380272
O      -0.397091695993439     -1.643229212259783     -1.031255726677864
C       1.226037482756094     -1.297107483188900     -2.723233160877619
H       1.189489564821449     -1.169311304982552     -3.878928640133934
H       1.521528166151454     -2.387823081170070     -2.554867508736112
H       1.966735345883425     -0.608642066652334     -2.172548904623724
22

C       0.995371835225698      2.692089390670029      1.132587745878085
C       0.971587744390768      1.704061713923533      2.305561192879287
C       2.119954533595819      0.960358507134959      2.293464369869364
H       0.184984302323310      1.764307685534133      3.057908083868356
C       2.888329913507327      1.390628033223919      1.173110087197228
H       2.345289018186020      0.100774642393396      2.910043901863604
C       2.312461761386279      2.332094020013963      0.449431092518269
H       3.834613332822758      0.922200317672254      0.821189057944391
H       2.575698089283788      2.793254545871219     -0.446381726863611
H       1.025399975969952      3.805813886350722      1.482623488883651
H       0.186346678348881      2.640555142368298      0.435792507324802
C      -1.264388518125733     -0.477285869113825     -3.060382867003984
C      -2.527564270116354     -0.393626948574745     -2.634637784031714
H      -3.259276529026935     -0.007112405365096     -3.288613056956476
H      -2.830043375035415     -0.742155718687053     -1.646147028501680
C      -0.237275120892744     -1.155077318939235     -2.257378018875157
H      -0.997039196564867     -0.093898397761028     -4.072522544901782
O      -0.531294556519461     -1.529536424960229     -1.129417582277723
C       1.129842103012624     -1.310886849735240     -2.798104596924176
H       1.156166534979694     -1.515579496029942     -3.939153591534160
H       1.703322241342559     -2.167007321102019     -2.286846896707746
H       1.596966490482559     -0.269125289838604     -2.573081981534410
22

C       1.132492573556448      2.698330768025829      1.188452767705533
C       1.149038416789378      1.846178858646522      2.308833036542671
C       2.316600687785226      1.157000937270060      2.348170681955171
H       0.277867533889868      1.686563645601867      2.951272333577904
C       3.094128728615468      1.467804664530841      1.165769891621301
H       2.647046726941701      0.536406381181747      3.143325529802476
C       2.537997695804242      2.475425765194446      0.535520364795169
H       4.109158192612722      1.054261945419382      0.889908864114857
H       2.818373618547717      3.081125999595706     -0.318785220287098
H       1.046784038621072      3.822147252686638      1.370122346464653
H       0.323398856674332      2.449132205718801      0.549171541436634
C      -1.315876697694236     -0.552385246885976     -3.293198718127540
C      -2.613728000718052     -0.496862657478601     -2.947154843434014
H      -3.347634273189802     -0.037181237047474     -3.552036079628167
H      -2.791359645479035     -0.967886754241708     -1.969841325089408
C      -0.338600735393645     -1.112213292864034     -2.298716437842271
H      -0.869723977727919     -0.091136339536568     -4.172883271391010
O      -0.622397439514513     -1.472978761308255     -1.160870906939830
C       1.038962492680805     -1.260265212062049     -2.909170574795534
H       1.090426291065933     -1.919132554354489     -3.859364608177204
H       1.821494595113102     -1.753468732110228     -2.214260976306470
H       1.444194408612889     -0.234297333184869     -3.235478083779332
