22

C      -0.054358877019910      1.818292036192819      0.978000695886790
C      -0.885130400871850      0.756600608199369      1.646415371213540
C      -0.008396110223220     -0.265458063823011      2.008732505439470
H      -1.784426625062059      0.987833627452589      2.204802340157830
C       1.193718366157370     -0.113870754970751      1.298685222592910
H      -0.262245946600830     -1.114433596881321      2.628290239716101
C       1.120422421893490      1.020418721708359      0.528661857645340
H       1.993221352956530     -0.841390399401481      1.280148592263270
H       1.895057938714940      1.397305068361709     -0.125190678932640
H       0.287890694966570      2.516734345025499      1.757598249308760
H      -0.555458155466170      2.403955993682249      0.209272238163790
C      -0.700163294135400     -0.034993348405441     -1.014957068363840
C      -1.714487045356380      0.033886352619679     -0.075679580887860
H      -2.449619693011539      0.827769164010049     -0.151553653547790
H      -2.075477670016270     -0.904102434507051      0.329249252262580
C       0.037995126778830     -1.276911931387211     -1.164452438837120
H      -0.512837261450720      0.773727152348119     -1.710901131945380
O      -0.108000216134870     -2.202618371901111     -0.379100983467770
C       0.980229405324210     -1.405757663678131     -2.335145058936740
H       1.363078896085740     -0.442711049025371     -2.678088653987070
H       0.434233439777440     -1.866991205201431     -3.164376608054930
H       1.804753652694100     -2.067284250418121     -2.070410707689250
22

C      -0.092213550755903      1.850346940971765      1.029427592207022
C      -0.952855873761629      0.920855669538549      1.886069776759314
C      -0.148596874891355     -0.140762750045087      2.169860972447803
H      -1.891011912512037      1.295166706575547      2.264502139162056
C       1.123567342886293     -0.053787717046951      1.455524810840411
H      -0.457469564747843     -1.015059447522134      2.729566924011992
C       1.163417231217912      1.069944296272312      0.712927743586275
H       1.874629189319475     -0.813950660726372      1.482231361968969
H       2.012106907799238      1.496022797805717      0.172618603389637
H       0.170736503398919      2.753800416684552      1.674199996709645
H      -0.720109901790480      2.217611844632459      0.064409036272388
C      -0.743421518990563     -0.140229575472037     -1.354916139290984
C      -1.868564668129577     -0.181634261294623     -0.628888996764297
H      -2.626997385041892      0.593816678871655     -0.686383145237022
H      -2.075322160153754     -0.978946904384242      0.015061752599480
C       0.086591764737048     -1.358954559923025     -1.462531858886916
H      -0.513010630171182      0.693358825173045     -1.996281013581284
O      -0.052529145967775     -2.292556485637919     -0.708442450983424
C       0.906888841579886     -1.547945158943072     -2.747597914639494
H       1.046046786386733     -0.656628084780973     -3.307300815840586
H       0.341502925388898     -2.227511020188709     -3.440385762116423
H       1.830417655290824     -2.034227744852785     -2.464114329195223
22

C      -0.051417897394569      2.032168111090091      1.237116563694228
C      -0.819372647362096      1.178233819998343      2.245429218306649
C      -0.261351071527016     -0.065888517279745      2.299934323042216
H      -1.801286210847545      1.488789051132998      2.496720492807082
C       0.980224155106776     -0.012509344437399      1.573232703997403
H      -0.669794471477404     -0.878207691023560      2.885093164844515
C       1.183946481117633      1.238383578739761      1.078103829191847
H       1.710188996128476     -0.813174104405310      1.556913024974182
H       2.067344194739270      1.500741720190959      0.459625989480071
H       0.134857030054765      3.063292544527417      1.513546399618630
H      -0.579078715851886      2.007252939992922      0.306913670678949
C      -0.939199354127153     -0.397764575979448     -1.903582331189923
C      -2.105254038226725     -0.332896032378271     -1.248837895469739
H      -2.657253528241044      0.582055581619947     -1.122831279605284
H      -2.463628451942998     -1.147100416827573     -0.689244802162052
C      -0.016095766218473     -1.568432653298095     -1.908460981782566
H      -0.615670350971334      0.452404023467783     -2.514101419190256
O      -0.041814919557796     -2.412591147304078     -1.034031031074496
C       1.027505067781752     -1.704483656513984     -3.029758389331922
H       1.385109046300195     -0.726949680907236     -3.329975717471906
H       0.518524389461429     -2.247481874188717     -3.903674280434503
H       1.855222491316257     -2.361641377689712     -2.661247633465049
22

C       0.029158615517746      2.254511819594192      1.618022002188872
C      -0.886536901256816      1.312409185289470      2.327321883623527
C      -0.322154779903312      0.088201733855109      2.471868517675250
H      -1.797555549233497      1.571852477302501      2.788945606977632
C       0.877614982297469      0.063801046789739      1.694410271521291
H      -0.807069941211587     -0.713451089776078      3.045478851763122
C       1.025713999881535      1.282244049538238      1.084979841839265
H       1.569488568831495     -0.773893782981300      1.601379186589329
H       1.972887960020367      1.525934386011780      0.606364366417824
H       0.560566902996442      2.894540158250086      2.366984429339939
H      -0.388782982167339      2.979673985028706      0.902434319428339
C      -1.078650377770374     -0.710793967093068     -2.600889621066534
C      -1.962756134271332     -0.421830350550462     -1.609649366635136
H      -2.700961297914208      0.383445817039643     -1.711310237662472
H      -1.991648078485559     -1.002521058010880     -0.741123272088157
C      -0.094950327596831     -1.791983784257665     -2.298244505897262
H      -1.067994922325229     -0.050193404163386     -3.476279025306827
O      -0.246659854915935     -2.544804137900868     -1.351459404704294
C       1.187142757141517     -1.795525335555636     -3.122324595094990
H       1.655606404084014     -0.827258495263657     -3.020504064222154
H       0.891508356037341     -2.012040497436923     -4.138575817015725
H       1.891148281414510     -2.513408503538415     -2.693769073899929
22

C       0.007801631942441      2.288507115204101      1.755271785834904
C      -0.941055904489266      1.519599681652569      2.585127292715570
C      -0.621221273392135      0.220745660848367      2.394349770937965
H      -1.791909906166052      1.896710558451090      3.100084867709497
C       0.619681887118312      0.073533996881834      1.631640929751139
H      -1.145808251948337     -0.641102580690784      2.817608653551980
C       1.035464114053664      1.304198574007859      1.295378916555663
H       1.086707879106527     -0.883470976907273      1.456522853743203
H       1.920852920463777      1.596696137003925      0.754698986052731
H       0.396365644529469      3.305773325819080      2.044300980874099
H      -0.572298175307599      2.655545382452161      0.805605241771929
C      -1.139054890233923     -0.976547137373283     -2.884092977894761
C      -1.948818886716948     -0.434388521044499     -2.005543672021591
H      -2.812673518001346      0.230247065763391     -2.244390745150208
H      -1.737138897256140     -0.566692375537206     -0.989162827692676
C       0.012911994736953     -1.914474370009258     -2.479881373527928
H      -1.176337595528519     -0.804935721828220     -3.931313513414176
O      -0.108077213704082     -2.638322949081175     -1.521110887327264
C       1.253479441949862     -1.861902795072065     -3.362219242640530
H       1.939013038765201     -1.067156527602524     -2.877717907679409
H       1.013494879299487     -1.527051878210589     -4.345167806078316
H       1.768960825021426     -2.836628418444249     -3.263405651633634
22

C       0.019885245872347      2.332046670722344      1.849403200731697
C      -1.109576406940837      1.656045296960655      2.574657742110269
C      -0.854815485314683      0.334292808085790      2.480111206107443
H      -1.891536409335866      2.182338928475113      3.110535330154002
C       0.369000937793162      0.043660121524277      1.690023041374805
H      -1.460593908072453     -0.539918115642739      2.876795684210878
C       0.904707006915821      1.202963031963477      1.265964285827532
H       0.788597352244723     -0.944659669749937      1.515925515040783
H       1.747441337587220      1.393619749778558      0.638118499744276
H       0.644142890811316      2.704328671697518      2.676538219940349
H      -0.110942913919152      3.199276850359641      1.266746013579685
C      -1.011728890509219     -0.986537384593072     -3.135838018903632
C      -2.009582108997872     -0.634925434532580     -2.265173339428770
H      -2.837965215489044      0.015685645248205     -2.628684506012444
H      -1.960188917690464     -1.085619371824838     -1.315411528881413
C       0.124325774682145     -1.905377558482294     -2.664651224036606
H      -1.008263794642541     -0.652446213276668     -4.110664553488656
O       0.075849258753916     -2.497131817061630     -1.606482343474871
C       1.280754176592902     -2.067821676604329     -3.623289619992968
H       2.157637821739834     -1.450363088002991     -3.317879047571372
H       1.007744922907318     -1.754737098372932     -4.598854078970318
H       1.556925218294617     -3.145858054551871     -3.652604836787356
22

C       0.090849176836433      2.259583853916086      1.835857201782139
C      -1.095514344780059      1.776668662955718      2.525598012946213
C      -1.140481416854003      0.417128902070447      2.498850743745793
H      -1.651646660497452      2.398855020435509      3.216866125423708
C       0.027967242594074     -0.023275964092992      1.782867298386795
H      -1.901583775822847     -0.228387798913650      3.006182317258464
C       0.809717595123416      1.045627381414985      1.413450541352143
H       0.233775780663504     -1.086863831227882      1.505725467168497
H       1.755247686468158      1.097353863542757      0.930571086107160
H       0.724586759779373      2.920447517831082      2.512838735289987
H      -0.188632630100294      2.906423051868701      0.970853408027296
C      -0.926361947827158     -0.881167033036312     -3.293507080394690
C      -1.991663936840989     -0.906167787249120     -2.521204415261060
H      -2.785437500184016     -0.138516085432783     -2.678125094217008
H      -2.011370980151556     -1.549653433790855     -1.678006955289764
C       0.230326401562718     -1.828785494405628     -2.847884545137827
H      -0.824022261541290     -0.168416473956545     -4.110203937399388
O       0.244543436613526     -2.229300835304332     -1.717689144804817
C       1.233704756829432     -2.300904304184633     -3.840500765734244
H       2.158585439772671     -1.786831066262986     -3.727855273177167
H       0.999861417467209     -2.287408080144681     -4.903432548827564
H       1.357817941326556     -3.377223908008601     -3.647237619776623
22

C       0.335069738748728      2.193355557904495      1.918792830504789
C      -1.050983085306775      1.911563063168155      2.537620258790788
C      -1.416133222956032      0.621134335607622      2.525336305539222
H      -1.656099228223466      2.635644066369089      3.072845544309020
C      -0.305033958232847     -0.090210320740969      1.875158412613835
H      -2.243190952680132      0.128303322542856      3.019878561134887
C       0.717716698233655      0.727675080949069      1.604830007970659
H      -0.184805756175018     -1.225715371036203      1.864879445116107
H       1.622709129027300      0.360944946278178      1.220374445459759
H       1.010644749867734      2.750793515629585      2.688671316920808
H       0.265840836845656      2.756232760578408      0.939886939228251
C      -0.941943258912215     -1.150891173827318     -3.547670311315142
C      -2.007450336730757     -0.759957245044819     -2.844680838764941
H      -2.886801786880648     -0.269429686362759     -3.286658516251069
H      -1.957715709472210     -1.195971727444708     -1.875504639714365
C       0.243720586037901     -1.856346009322968     -2.989663424697845
H      -0.891148779594631     -0.923319866833346     -4.700034351703891
O       0.338745867558895     -2.250484204719448     -1.841838411968043
C       1.267547757606549     -2.130918267894365     -4.011424763982459
H       2.115984084332408     -1.447039857849380     -3.920362098307671
H       0.868048973176402     -2.007933906269653     -5.081328181256919
H       1.651259553082018     -3.184429490338038     -3.989246513561346
22

C       0.508178509610213      1.879208089820231      2.001176092569654
C      -0.847807466097877      2.099229377949463      2.509377867325291
C      -1.500016864772825      0.910165706679547      2.571199759065288
H      -1.150012134591829      3.094775006977557      2.803894144327420
C      -0.573441179986690     -0.161303327444008      2.130748784245264
H      -2.522622647332181      0.639305262274239      2.878607600585586
C       0.588858119784025      0.434978218975183      1.783331874783155
H      -0.822623875182207     -1.278702065649092      1.984268983325429
H       1.489317582193108     -0.060426311422306      1.577831567287769
H       1.039589031698822      2.006730302419429      2.890661244894325
H       0.799700148582834      2.529304533542868      1.214978361761412
C      -1.084005884270795     -1.179966825307232     -3.902369568933185
C      -1.915591077712018     -0.802790821565102     -2.968180656594364
H      -2.824716166266141     -0.200747787843811     -3.149058879580393
H      -1.572460236830395     -1.054475012561841     -1.950261881323345
C       0.173843177041905     -1.826126361435022     -3.286522495638494
H      -1.215482155018176     -0.860756713626530     -5.018541914051346
O       0.139383500791779     -2.245266643929781     -2.152726597213123
C       1.432896785275473     -2.043263159267476     -4.097407933742162
H       2.043018522602788     -1.149513576313156     -4.203093995003071
H       1.162324459606342     -2.429223885071557     -5.115158424132760
H       2.097566654590750     -2.684546167338053     -3.495438518903302
22

C       0.616130582858429      1.594389941194117      2.103963317055603
C      -0.720344400594372      2.161962757469808      2.571577848539177
C      -1.545943198952525      1.107629887849180      2.565508175633989
H      -1.088358664718154      3.159711620547303      2.889343085535670
C      -0.841429414399939     -0.155107534131280      2.299042348094559
H      -2.609474532012606      1.140297893758542      2.949601227191920
C       0.477066263481360      0.086856346954001      1.996264759842132
H      -1.379779379026665     -1.116306924539974      2.630573570265520
H       1.286443767211902     -0.546199030517647      1.808719623083718
H       1.434132108554559      1.714166020438249      2.953986305398685
H       0.915731349219687      2.080936061540712      1.098997627243662
C      -0.935818595648061     -0.984133100197391     -3.925644444127678
C      -2.153531948322933     -0.802039391548399     -3.350040237521732
H      -2.869263836907356     -0.126625791381685     -3.957692638143642
H      -2.460564205012633     -1.398140233540173     -2.465135337196186
C       0.212661506225912     -1.771544836709675     -3.391521563152704
H      -0.801460109632049     -0.617437544623999     -4.899942089526808
O       0.279329882995271     -2.425523856086147     -2.354562235635883
C       1.364469873179771     -1.826672535269212     -4.378102084509739
H       1.669626358218211     -0.893274360578165     -4.887595036196528
H       0.883458902999353     -2.464067660545422     -5.183021427146595
H       2.235261278875765     -2.140680626794356     -3.851665125610677
22

C       0.717129701604491      1.293126799631669      2.205792959770811
C      -0.561276719786627      2.101156599483887      2.377675825537565
C      -1.599101795149274      1.273667900377481      2.498674357267079
H      -0.607920957355628      3.183723324269585      2.569655243585857
C      -1.073144118436989     -0.117299214847476      2.468247403702025
H      -2.713807275256783      1.441696943407881      2.754926321259658
C       0.222959658755336     -0.106397601071922      2.197146240964008
H      -1.686052888616548     -1.062307377528687      2.681993905460571
H       0.860055637602435     -0.949027344630621      2.202928144814309
H       1.348206465990568      1.430058384127337      3.075327472826510
H       1.206355576806655      1.662788769558974      1.314678049119033
C      -0.871111716109320     -0.811036211484191     -4.015752138967253
C      -2.048567037870435     -1.026445283121090     -3.429070249752243
H      -2.931785389599159     -0.332379169707252     -3.450900263661034
H      -2.183239447534844     -1.900359666653360     -2.757681693592807
C       0.250806381659303     -1.628096886031360     -3.575570422123490
H      -0.683016178943553     -0.058705897120925     -4.736926970262520
O       0.092511809764311     -2.391819530813185     -2.651492084231383
C       1.440941334520428     -1.688462718195709     -4.446453542219858
H       1.620455324174856     -0.712246009231156     -5.018807922809123
H       1.080678519723135     -2.321611810870489     -5.277650739127568
H       2.295159327202827     -1.938081521894947     -3.890200908240828
