22

C      -0.054358877019910      1.818292036192819      0.978000695886790
C      -0.885130400871850      0.756600608199369      1.646415371213540
C      -0.008396110223220     -0.265458063823011      2.008732505439470
H      -1.784426625062059      0.987833627452589      2.204802340157830
C       1.193718366157370     -0.113870754970751      1.298685222592910
H      -0.262245946600830     -1.114433596881321      2.628290239716101
C       1.120422421893490      1.020418721708359      0.528661857645340
H       1.993221352956530     -0.841390399401481      1.280148592263270
H       1.895057938714940      1.397305068361709     -0.125190678932640
H       0.287890694966570      2.516734345025499      1.757598249308760
H      -0.555458155466170      2.403955993682249      0.209272238163790
C      -0.700163294135400     -0.034993348405441     -1.014957068363840
C      -1.714487045356380      0.033886352619679     -0.075679580887860
H      -2.449619693011539      0.827769164010049     -0.151553653547790
H      -2.075477670016270     -0.904102434507051      0.329249252262580
C       0.037995126778830     -1.276911931387211     -1.164452438837120
H      -0.512837261450720      0.773727152348119     -1.710901131945380
O      -0.108000216134870     -2.202618371901111     -0.379100983467770
C       0.980229405324210     -1.405757663678131     -2.335145058936740
H       1.363078896085740     -0.442711049025371     -2.678088653987070
H       0.434233439777440     -1.866991205201431     -3.164376608054930
H       1.804753652694100     -2.067284250418121     -2.070410707689250
22

C      -0.097451659022943      1.845351862887433      0.971726043884827
C      -0.897363478020758      0.736293473407274      1.633557958443645
C       0.018592181689471     -0.267018765194349      2.049643969263137
H      -1.887352159246004      1.008253062242819      2.145084312320578
C       1.211342039613778     -0.117917848136226      1.258284124854402
H      -0.304517083601354     -1.206402609711973      2.549598065048414
C       1.102728389275042      1.040869118307991      0.496855906799097
H       2.137906910084146     -0.702167450755285      1.424126773437532
H       1.902707499194315      1.341434363851384     -0.216273440735805
H       0.362072253076875      2.467189797271496      1.797576557751917
H      -0.580247517967422      2.512150003258565      0.200358358284758
C      -0.705205816251769     -0.000944990849766     -1.037175710448519
C      -1.716903583810979      0.043916922725017     -0.061900775458526
H      -2.375730252195216      0.907856825042039     -0.225618780492925
H      -2.111841075103143     -0.911971214904777      0.323385747864121
C       0.034400605681017     -1.224377568635858     -1.169726261900776
H      -0.459803611556127      0.811512825044778     -1.731829448918993
O      -0.086763635594143     -2.186013879419602     -0.379034527938901
C       1.014574657999684     -1.424026964440329     -2.335418577640232
H       1.366652397083467     -0.392947592084379     -2.720552947378059
H       0.437619653312730     -1.806955123835535     -3.252600983404970
H       1.814954881696479     -2.130144124823238     -2.106018875446215
22

C      -0.120246126905533      1.863826712505251      0.964942595225176
C      -0.929742873388817      0.723414339926902      1.618220558639438
C       0.039837718571542     -0.269067018956959      2.063256219979245
H      -1.826679157932801      0.974134128841820      2.068275502290864
C       1.219501873497136     -0.104732665385797      1.240463637104547
H      -0.261654454568841     -1.192437805548455      2.511986530632103
C       1.082798468667109      1.052194897581393      0.465685234143677
H       2.201623804090520     -0.606992363185870      1.463542783351619
H       1.837085510575513      1.351604755695027     -0.240172802836793
H       0.356458650491782      2.433087477372804      1.777727529748176
H      -0.587033219243816      2.560071472805396      0.296532988888287
C      -0.701609888793045      0.021475828343576     -1.051178709676943
C      -1.707093403259956      0.063396816221883     -0.053633577074971
H      -2.394278125620671      0.920726471718604     -0.240129206524714
H      -2.137889319013921     -0.868736160260180      0.293027557642042
C       0.041524484831521     -1.212418211159875     -1.176282056121289
H      -0.456489930448805      0.875972781546096     -1.735665145099687
O      -0.066069953303557     -2.155445851548204     -0.385969607610818
C       1.033733257056026     -1.416581156557055     -2.349993801945219
H       1.412836213029541     -0.497909221289021     -2.676994589968146
H       0.493804804375949     -1.765713949806674     -3.186157908104991
H       1.854758247304551     -2.161051817831770     -2.119782556707896
22

C      -0.117465477031154      1.856154870100463      0.970837929326894
C      -0.942293822827374      0.710144801694890      1.576406825708702
C       0.057765272469428     -0.257182864634798      2.040053335361762
H      -1.926767840098948      0.958648485203320      2.175988652949821
C       1.217808139190182     -0.070991126752662      1.248606038790050
H      -0.184019816594052     -1.200057519239576      2.601768956003811
C       1.044770504430480      1.052370184237301      0.436895333410499
H       2.149560638087823     -0.557090544053656      1.364047974642978
H       1.814163152521288      1.459534165699399     -0.269398408098659
H       0.295241207925649      2.450169792606645      1.810263861874079
H      -0.659644028488235      2.627426744351990      0.338695285891030
C      -0.689864255301480      0.041558971606784     -1.055233327701333
C      -1.686252088031552      0.095581882250256     -0.053218682337026
H      -2.443989112206885      0.839535300625137     -0.176535075234342
H      -2.154653725327419     -0.862739342290723      0.261128887772560
C       0.064715059541199     -1.227162561938589     -1.189599155946677
H      -0.533349970017397      0.871778976014167     -1.697700753691496
O      -0.049036123657728     -2.119284947822541     -0.395476160794642
C       1.047993965245893     -1.405013483312855     -2.345311568900573
H       1.588568887478372     -0.424884810805336     -2.672212622916135
H       0.445347135447723     -1.831104087989655     -3.241580038013058
H       1.805016659584135     -2.104884218257512     -2.111790410617189
22

C      -0.110673639294236      1.849227455382590      0.985883892618912
C      -0.960402067470960      0.698649816926382      1.531708134882963
C       0.062686530061865     -0.246821432438536      1.994427443673571
H      -1.758605004514713      0.868541268352656      2.191825409797247
C       1.198622536321613     -0.016903252927958      1.272451399279600
H      -0.045442573951743     -1.071318751945949      2.682792725016327
C       0.995996855326372      1.054207978383960      0.400414943218662
H       2.163429053227008     -0.656924510852343      1.230215300857811
H       1.738004230609891      1.527638695514421     -0.211085056873483
H       0.210147606730850      2.465337157831092      1.872385407033387
H      -0.667552048211283      2.528911061422501      0.373664225079550
C      -0.661455349856692      0.050062503220024     -1.044148364156195
C      -1.667559597140933      0.123551140659251     -0.033018865914922
H      -2.536286361585594      0.860590531301176     -0.122630277574784
H      -2.103864010339724     -0.856368752381043      0.204160721134814
C       0.096964762971756     -1.221708739531295     -1.218859446746420
H      -0.607221500059868      0.935091028573761     -1.772970692384236
O      -0.037889912449399     -2.096120539073232     -0.398504410290655
C       1.051739162117104     -1.377394986558614     -2.362600885677610
H       1.608349218334470     -0.518178910386605     -2.635228541028100
H       0.517561573762441     -1.808506429741108     -3.180063056431047
H       1.838750274628083     -2.169926471390823     -2.031067208002028
22

C      -0.116801222781050      1.841721154496665      1.017917455989666
C      -0.963511025733991      0.675107968729374      1.469417994195624
C       0.055037360312178     -0.238504755409785      1.939348888095423
H      -1.710165887724932      0.845030383271247      2.313324332651976
C       1.202141219406182      0.020081125618413      1.285682783110849
H       0.038955464347179     -0.960461988400596      2.770986620707756
C       0.931771145076374      1.068646659384182      0.362266405569741
H       1.969968430120508     -0.659733615369923      1.146807577955926
H       1.728076099142748      1.589606331866574     -0.217359548389859
H       0.170048204299643      2.423836537357943      1.883945941121973
H      -0.685768172902595      2.478797031449279      0.303623855587473
C      -0.614513615958788      0.075711647989267     -1.034645474774706
C      -1.652691817113049      0.150128151710908      0.013486934402938
H      -2.450367203317315      0.831783037964093     -0.148483626089372
H      -2.034499178153372     -0.877313077180890      0.164671103233222
C       0.122955303038155     -1.186468398856403     -1.242905477857972
H      -0.652387952057888      0.810079621861707     -1.794515311767836
O      -0.031871451112930     -2.082477231436997     -0.397024145110662
C       1.076283848005686     -1.377132227722863     -2.363626881957916
H       1.637300853009300     -0.444427694609394     -2.663265951015034
H       0.550603581023536     -1.807180271666507     -3.257049849511852
H       1.727373834132645     -2.111135823018674     -2.017495346059931
22

C      -0.156991468259055      1.845800610968605      1.031108945554894
C      -0.986636435879609      0.649962154183572      1.418668700939586
C       0.058489960014984     -0.239414907462206      1.899034206321115
H      -1.686528442021165      0.870141358751563      2.264104836233390
C       1.199955234442736      0.051185554927647      1.268625863120709
H      -0.013244816530201     -0.897276938069589      2.781288592470771
C       0.883400575706619      1.090820032810065      0.308582117657980
H       2.007457360405282     -0.747006853540267      1.130696117053877
H       1.665648540844161      1.583476423947670     -0.252883745282392
H       0.224010799699440      2.417877709871651      1.920984655941831
H      -0.674222479505471      2.483121265087301      0.286286185217797
C      -0.551903549011096      0.111160058583581     -1.000713705920254
C      -1.617874962763090      0.153211241718794      0.080975355956478
H      -2.418967580799851      0.885722785252832     -0.256453875716017
H      -1.987644579134582     -0.876501786957221      0.185418421457647
C       0.126400276354016     -1.151980601098802     -1.236679362722696
H      -0.670597101745589      0.741131696719027     -1.942864495006603
O      -0.024149459597191     -2.065445331979013     -0.404095617459290
C       1.099314992510531     -1.365480687329443     -2.373482886555387
H       1.608656963523678     -0.434590484207449     -2.675149011737079
H       0.593371304032985     -1.751069695737425     -3.300777000177634
H       1.797778812950389     -2.196554630030612     -1.983468059950158
22

C      -0.213711052145037      1.866045709422645      1.022728872550534
C      -1.024701183616732      0.636983421327992      1.390724293241101
C       0.079086741397795     -0.249236543750275      1.886188305647861
H      -1.776496418234512      0.860573375669776      2.111331546871513
C       1.212947294471656      0.051870417165901      1.224494013817382
H      -0.138621979026919     -0.930560034923239      2.701960721277083
C       0.846311532229491      1.107193487749371      0.240815442662922
H       2.035346931582460     -0.643729078656944      1.204339165204357
H       1.613673478735356      1.588099880732427     -0.380712860521308
H       0.249367988787948      2.367070044161036      1.869207415510503
H      -0.698108469563630      2.578288078261154      0.365986986679944
C      -0.476142911496028      0.175147671538205     -0.951904669052938
C      -1.584152531073772      0.155698694461595      0.127850629843612
H      -2.324444637852217      0.816434335521115     -0.292796593924691
H      -1.994771818958872     -0.862217086837934      0.232760317488801
C       0.122973817687658     -1.135257026888550     -1.206473155393036
H      -0.659067928987779      0.640109465863205     -1.906930738945360
O      -0.013580160612085     -2.043093736394790     -0.423892755049011
C       1.120064558599609     -1.364109450041220     -2.378993389380000
H       1.621192091939885     -0.442400066720516     -2.653448288204436
H       0.635310321540184     -1.681165283701569     -3.274765476876422
H       1.806860023359176     -2.146785689471063     -2.053977579073041
22

C      -0.261338816936971      1.889506444692176      0.991037249608409
C      -1.048377659746164      0.645148062713684      1.396527173568872
C       0.100675388924174     -0.249953984067573      1.881316454486294
H      -1.975933930304315      0.832772098598165      2.087827229331577
C       1.212635454260745      0.039180252607825      1.173796404024597
H      -0.185680284917372     -1.070013268573707      2.578790012495504
C       0.799560430889128      1.104166209725096      0.156022719138542
H       2.174760190522844     -0.499394989687663      1.275600179234429
H       1.562607953067624      1.606701743146612     -0.499539212197416
H       0.256225376501202      2.347636110855947      1.860326670074414
H      -0.792337137008444      2.737405088357280      0.453703616127010
C      -0.388352166129006      0.245419966552896     -0.867427573650075
C      -1.558187829247655      0.143807722153366      0.123928489214377
H      -2.371565825614697      0.793579812206615     -0.262642582212004
H      -2.010406852719936     -0.837403637188395      0.245719050502912
C       0.145434595082846     -1.125684943760337     -1.188684042254460
H      -0.657866315030945      0.702185150915772     -1.856027177656179
O      -0.007256736754214     -2.031085358425836     -0.440015696074503
C       1.125921200850882     -1.350214575323299     -2.366256416759092
H       1.721482805691218     -0.396762374354044     -2.633488027641059
H       0.576346793456112     -1.691646621105682     -3.324222443413130
H       1.850248180259827     -2.136884733331584     -2.120106517291199
22

C      -0.288945312464032      1.926180834626023      0.953941233060963
C      -1.069764266775274      0.668811958234691      1.443656662510934
C       0.101616551948272     -0.247558519284026      1.877248063425460
H      -1.906163627335071      0.763767111611482      2.048611442703129
C       1.199926025091163      0.028687750653864      1.131160290689149
H      -0.063454586155758     -1.174089731346181      2.396623650601257
C       0.725543726199686      1.083553593427957      0.057178834874569
H       2.269244095386246     -0.346497023081714      1.263889518469725
H       1.461460506181095      1.616731531643512     -0.510807560811852
H       0.234015466852055      2.312882166497431      1.850317182229897
H      -0.861361025770912      2.741548912653494      0.549722610505049
C      -0.296460361960475      0.311144398698249     -0.774061034084801
C      -1.546971588831584      0.131501184909855      0.078857729158994
H      -2.425397965699279      0.781385277477245     -0.174730601553088
H      -1.983130651333356     -0.873518371976688      0.205616947565840
C       0.204212740076079     -1.104034962346057     -1.189095508038734
H      -0.596074369537739      0.866347487748103     -1.713091058910015
O      -0.008199870826697     -2.037793456389119     -0.446933533936345
C       1.119736921210897     -1.317059132143128     -2.367548546742955
H       1.716538872696292     -0.479484942578011     -2.588447644089084
H       0.591116317944477     -1.636086924527287     -3.219368899287713
H       1.870572450726619     -2.168915668500387     -2.149597091630600
22

C      -0.298066306333623      1.949531437721731      0.939427342994346
C      -1.061425496794977      0.677930092933917      1.473869058994965
C       0.100803463063293     -0.234199194203248      1.860200658891239
H      -1.953823860536779      0.735114285647430      2.228940913810796
C       1.183868026889149      0.039332033062707      1.091612242153346
H       0.077591248670202     -1.255653850415501      2.333068087777445
C       0.646724624063537      1.063933137511678      0.001995271146823
H       2.188885049815674     -0.212891463853237      1.184841022100630
H       1.434232132047822      1.677159757578810     -0.537540383721057
H       0.242057439521989      2.318823440343636      1.804546262800592
H      -0.981612573180362      2.745956944285246      0.515672164811003
C      -0.229610779125998      0.344487648390124     -0.732266983959631
C      -1.548768367999945      0.126298148842929      0.045407586394212
H      -2.393506458235393      0.754338529116887     -0.147808492357699
H      -1.864758125577477     -0.927725816880812      0.075814474758220
C       0.276301195960303     -1.080891494544294     -1.174125044296511
H      -0.480916712216961      1.020911645601464     -1.521353427954868
O      -0.017920451700502     -2.042341603112005     -0.458765819943122
C       1.128991724267218     -1.300499747296483     -2.358103539959572
H       1.763169423952518     -0.378153577071039     -2.603951448252163
H       0.507440872932675     -1.589450942682433     -3.275465890961377
H       1.736529204399669     -2.106428136271575     -2.162540394831037
