22

C      -0.054358877019910      1.818292036192819      0.978000695886790
C      -0.885130400871850      0.756600608199369      1.646415371213540
C      -0.008396110223220     -0.265458063823011      2.008732505439470
H      -1.784426625062059      0.987833627452589      2.204802340157830
C       1.193718366157370     -0.113870754970751      1.298685222592910
H      -0.262245946600830     -1.114433596881321      2.628290239716101
C       1.120422421893490      1.020418721708359      0.528661857645340
H       1.993221352956530     -0.841390399401481      1.280148592263270
H       1.895057938714940      1.397305068361709     -0.125190678932640
H       0.287890694966570      2.516734345025499      1.757598249308760
H      -0.555458155466170      2.403955993682249      0.209272238163790
C      -0.700163294135400     -0.034993348405441     -1.014957068363840
C      -1.714487045356380      0.033886352619679     -0.075679580887860
H      -2.449619693011539      0.827769164010049     -0.151553653547790
H      -2.075477670016270     -0.904102434507051      0.329249252262580
C       0.037995126778830     -1.276911931387211     -1.164452438837120
H      -0.512837261450720      0.773727152348119     -1.710901131945380
O      -0.108000216134870     -2.202618371901111     -0.379100983467770
C       0.980229405324210     -1.405757663678131     -2.335145058936740
H       1.363078896085740     -0.442711049025371     -2.678088653987070
H       0.434233439777440     -1.866991205201431     -3.164376608054930
H       1.804753652694100     -2.067284250418121     -2.070410707689250
22

C       0.016795008943884      1.880031368998963      0.964709322403981
C      -0.924803714670752      0.784981307787292      1.598126423516989
C       0.012531419609154     -0.224593181367427      1.972852792164135
H      -1.750259421738413      1.014690211464072      2.246833220738245
C       1.209597344722595     -0.060699463353145      1.231734671678153
H      -0.276677125417355     -1.190292322020473      2.490718190114143
C       1.194958227593932      1.124505608995066      0.512589598752999
H       1.989681732695114     -0.830214693559666      1.058713808775454
H       2.045772907790919      1.494545913066272     -0.168777729605854
H       0.421360206081600      2.459602905425216      1.817328919896261
H      -0.397770294119988      2.601756756596795      0.270490002315804
C      -0.756869984257419      0.005990549136614     -1.029063698463234
C      -1.758467553634190      0.089055050250106     -0.024048580605960
H      -2.462471505553177      0.910872394338432     -0.160475927114376
H      -2.219894788971820     -0.836802725467195      0.302907145532729
C      -0.009995090641008     -1.259197781544555     -1.164241516615959
H      -0.668653793706184      0.763060822624300     -1.820714208356157
O      -0.251006936157126     -2.216887081073495     -0.406798227541155
C       1.059855929011411     -1.547495527441430     -2.327689364466790
H       1.803390831557315     -0.818863995429402     -2.652764080720101
H       0.476390060283143     -1.913073291159698     -3.150450673256612
H       1.551956463345450     -2.430235612502259     -2.002425418100118
22

C       0.021337162609828      1.972300499890838      1.039643734898896
C      -0.852036617890601      0.835645640677202      1.457989179296999
C       0.041279048833868     -0.222093027031073      1.855279848352880
H      -1.746172488015063      1.125248538173724      2.022554449163572
C       1.252334231004542     -0.049412953271891      1.177196626019707
H      -0.169417840286641     -1.067334429123892      2.569019554597211
C       1.217352218319984      1.155538225434637      0.506293526266298
H       2.071406898591571     -0.788532580860575      1.291691311438640
H       2.053441368874509      1.682526643716789     -0.071200315390195
H       0.229326546626952      2.562964868663863      1.954889728854653
H      -0.469455435919951      2.643937651353559      0.340302178703955
C      -0.778934940868354     -0.039035827842320     -1.056695774848972
C      -1.729628582298156      0.201054695699514      0.005482259357430
H      -2.478303503850996      0.961188639537247     -0.155604860150516
H      -2.095116350497851     -0.713472468128759      0.521537993152147
C      -0.047238644939268     -1.291982931805206     -1.222080785675227
H      -0.639567398840111      0.802432441041597     -1.740843953848699
O      -0.377593038234361     -2.174571481042959     -0.467068441176152
C       0.996639228205437     -1.692817699350654     -2.229141863053339
H       1.771298371967399     -0.934006022072260     -2.252499578957210
H       0.623080945668450     -1.645307396673219     -3.246718040080398
H       1.453134908484223     -2.622551006085853     -1.920637957345482
22

C       0.050404551631154      2.010831766970917      0.997302014581853
C      -0.868743053777809      0.834072696838387      1.337082219568000
C       0.076421897104986     -0.203865015810862      1.774156390870999
H      -1.549922188837476      1.025802121641134      2.214985626112215
C       1.301975222796051      0.011280579684357      1.187756539139293
H      -0.241429260780854     -0.986767389717289      2.438852991458834
C       1.197205716960918      1.263844613785760      0.522027303705821
H       2.181240539141211     -0.586941889939299      1.077271005851430
H       2.098676649855873      1.636959340963078      0.032709227272232
H       0.389560134012904      2.540438202540395      1.908550780011069
H      -0.359250279515986      2.744527132450885      0.283910278603721
C      -0.716464099016028      0.005631374735001     -1.131845639272031
C      -1.572599145991441      0.241593765689358      0.035378563535626
H      -2.321085563692606      1.015672747510339     -0.239251172036492
H      -2.152040450855337     -0.694241805907824      0.307829859593735
C      -0.226980617520536     -1.348322253929443     -1.241011457766517
H      -0.438463091660671      0.787534758225514     -1.854493189698703
O      -0.514803258845734     -2.232457083926561     -0.419836220355965
C       0.933261831849296     -1.669063696022474     -2.168389327744501
H       1.851030311136094     -1.113615144807597     -1.923605184767907
H       0.651794461252272     -1.651576294803054     -3.239516663757603
H       1.087157086047347     -2.771787480356840     -2.019700623831274
22

C       0.033875607519574      2.025060038884833      0.913365207242413
C      -0.863364038914974      0.819363507568322      1.333593691608217
C       0.136281580320896     -0.186020428340270      1.752551951488777
H      -1.812049680599583      1.033016129984585      1.894518927063190
C       1.349859610594462      0.106294693401115      1.165842385392620
H      -0.101598528495572     -1.142419938876362      2.131811003616082
C       1.307371985090203      1.310741949237213      0.480709690184795
H       2.112195807000745     -0.628697331340269      1.115470492994924
H       2.037545552789998      1.860861061063136     -0.021157481224400
H       0.193669369800048      2.482697983239356      1.907121052404272
H      -0.357893320955485      2.818972638139992      0.208574430514719
C      -0.618004254026001      0.014228061339128     -1.116209094839212
C      -1.527774423704541      0.347952778168762     -0.047219833659973
H      -2.262128899859002      1.189682837619713     -0.252561544365411
H      -1.979491386167018     -0.630682277354271      0.252892181113765
C      -0.278172705118692     -1.402134721694633     -1.179886579616524
H      -0.338693844265024      0.659759451798003     -1.958495352694759
O      -0.705910579288202     -2.259167916764163     -0.387867844427246
C       0.826437225782949     -1.707462925164361     -2.149427592167119
H       1.731934165530762     -1.159049980162979     -1.768286305146529
H       0.700289514693055     -1.188362226840465     -3.138943076272088
H       1.083058820598645     -2.818467549689054     -2.151563773144427
22

C       0.030156158250256      2.009671418199343      0.925015957989628
C      -0.798354617090781      0.859216688061787      1.306768203809642
C       0.159086547055933     -0.144356342738504      1.707140059093095
H      -1.556434599541831      1.058837673736790      2.088512589165198
C       1.420043288715212      0.149936900044162      1.119518319541981
H      -0.066777218513825     -1.125636339513408      2.152547535509810
C       1.324164595992551      1.396701701789792      0.448619144961742
H       2.321658755681444     -0.472530449688639      1.173917737834092
H       2.137219866214775      1.758115686652971     -0.096675065391699
H       0.247431925855271      2.737542181762151      1.739344281024471
H      -0.520110275310068      2.580852710340880      0.124253451806559
C      -0.548986000923674     -0.040006245852305     -1.051162315493772
C      -1.551407875990646      0.418428670853409     -0.166842571117517
H      -2.238847503098738      1.255665540710604     -0.530758836033245
H      -2.229158576749103     -0.341430819137342      0.217935278376018
C      -0.275414596166280     -1.463214548439925     -1.116613307248550
H      -0.218438070686644      0.639443968229837     -1.844048733779784
O      -0.896077221813303     -2.226030205651891     -0.412164643381241
C       0.779894592052330     -1.745463633241960     -2.131093113317684
H       1.711592954456912     -1.349714354159930     -1.637155173413622
H       0.551687070177350     -1.156905108290345     -3.062576311594890
H       0.923356277063962     -2.776073610776135     -2.493250929054833
22

C       0.079027134673515      2.105936383634513      0.840963337576561
C      -0.779437357371378      0.881794144492168      1.327288086134882
C       0.248909068772257     -0.126132015300603      1.666102781167386
H      -1.548040765908695      1.068517693999486      2.055289323070971
C       1.437111906353467      0.207833280418073      1.109298377362638
H      -0.007969384402019     -0.937749803150871      2.413596479449338
C       1.284085611244447      1.388701473302853      0.431614398162089
H       2.385659460873573     -0.375130149377147      1.039548836203934
H       2.031208410626175      2.017496656970034     -0.050844248863471
H       0.295319574007985      2.748146202512325      1.742719464862651
H      -0.288717816659311      2.763953710838995      0.053446996499039
C      -0.520535387222145     -0.042593240133124     -1.048398581621482
C      -1.584250183091869      0.456523765016448     -0.173199345260484
H      -1.830993762390671      1.463389592378611     -0.542978331964691
H      -2.351898144647123     -0.277191157623359     -0.071378916514560
C      -0.350351633604699     -1.452746758823127     -1.129460041240389
H       0.055408065872826      0.564144283231964     -1.738855138771128
O      -1.041254239860197     -2.235673218962627     -0.429708768395165
C       0.780870260742998     -1.824634056964126     -2.126581896678156
H       1.843314288817458     -1.697590182476544     -1.832986804579053
H       0.622595526000604     -1.169173995035595     -2.988657857092328
H       0.627828471208595     -2.872741906933012     -2.314953618491544
22

C       0.086795756126664      2.131902859091097      0.814935259511274
C      -0.763076500439034      0.914905721489473      1.271593267730855
C       0.250966261128534     -0.043717974010580      1.757821903501014
H      -1.570846375555975      1.150867433571978      1.938909628531554
C       1.474629291733615      0.242206607868084      1.095602430611881
H       0.181753074538875     -0.931566673842481      2.400005971140072
C       1.315984064067168      1.447029018716824      0.371916702582483
H       2.351384306010118     -0.430145206233212      1.182107208582441
H       2.206420250339827      1.835580938146179     -0.218686407873916
H       0.385242102327969      2.645781183704782      1.767660208289626
H      -0.376745342394961      2.849194091483259      0.179451247081752
C      -0.567486937896023     -0.004882639735525     -1.078576360896590
C      -1.487175310796943      0.562715433129891     -0.160443536336766
H      -2.017536716046611      1.441552102408446     -0.414438254507234
H      -2.243355653917470     -0.160575648516808      0.126806831565985
C      -0.387513126834705     -1.451461804223709     -1.148099798223551
H       0.045684793615311      0.641128048884703     -1.676155004058518
O      -1.101206160033512     -2.214553220458841     -0.525690772157605
C       0.674751162355981     -2.001086428097983     -2.113164980828185
H       1.577793256127714     -1.905726816628301     -1.512485919202009
H       0.811084997558161     -1.465284677051214     -3.032413321461569
H       0.539926627859544     -3.025916577110858     -2.452305389611576
22

C       0.151767091226223      2.131878835178631      0.882717512790370
C      -0.725290754565546      1.017667816845458      1.247584607265955
C       0.265627575409057      0.068639664226145      1.774189594855032
H      -1.509622783810245      1.248712237440618      1.972767618206515
C       1.447265113038971      0.294219811991966      1.123667745143391
H      -0.040058010100725     -0.730624387872777      2.414958177405001
C       1.385385065153716      1.431275613372350      0.344357110358723
H       2.350731155770458     -0.286657520459764      1.155612202352085
H       2.163077381968892      1.930250944030677     -0.315660981863508
H       0.360755461429323      2.772570266613299      1.759586742138621
H      -0.318045194832343      2.778495227065978      0.113938783608877
C      -0.549258604321255      0.025214582336468     -1.149504913975735
C      -1.455418034010868      0.582397542540138     -0.098173554743607
H      -1.972560114820338      1.394713154837654     -0.471189948398674
H      -2.108812686147641     -0.290972155647342      0.212614504814380
C      -0.476332773163278     -1.448085110913054     -1.302665268742920
H      -0.164080770527721      0.618621842675220     -1.965447882836421
O      -1.154200950873915     -2.186263830762834     -0.601844555492746
C       0.596985785013694     -2.149433591569822     -2.072156887640361
H       1.480481900166079     -2.290782126403728     -1.477915347467185
H       0.922886982068667     -1.583323503704851     -2.935663886480677
H       0.205883112882498     -3.178343107693880     -2.192127117932562
22

C       0.236351768962753      2.270178556314355      0.798538447776826
C      -0.732208011264499      1.125390145062602      1.301280832837941
C       0.250225157953563      0.116609513675341      1.754543759227884
H      -1.591858530348306      1.368311987763476      2.003592981197939
C       1.517504381570726      0.294488401432050      1.161028635122678
H       0.048883372282587     -0.639005919008847      2.484707677315401
C       1.372912976456230      1.452055271735988      0.356334657671462
H       2.281153653578803     -0.447371288824311      1.253218279607552
H       2.203769224931327      1.909390594635125     -0.207945395543884
H       0.603828840244217      2.755681496113277      1.733621207044645
H      -0.077367459640108      3.046358636222275      0.013419771088230
C      -0.539076708940091      0.022068848198934     -1.188021316714362
C      -1.394485825905366      0.467419947569618     -0.106516868765097
H      -1.973789378522282      1.303092576341971     -0.379463511793000
H      -2.137727111459018     -0.337094044013611      0.205254081627610
C      -0.525833630782591     -1.415962789020695     -1.334132848415925
H      -0.357120824137333      0.704572705079241     -2.037983156343247
O      -1.278650546542341     -2.131266625929573     -0.657325145578686
C       0.556605748524257     -2.251195549024457     -2.079051757788469
H       1.340010501479549     -2.501830770333861     -1.374339589392835
H       0.937388695134074     -1.951170918370077     -3.079384856545608
H       0.044882491941702     -3.185346392897447     -2.353419523668739
22

C       0.275879201408627      2.298616516434983      0.736469306462105
C      -0.641443875013560      1.192890577548440      1.220715252557201
C       0.249833611445232      0.182418441415521      1.824332922568670
H      -1.458649255697239      1.541875222358364      1.938189607874671
C       1.451921743475889      0.317045119927418      1.156705765059649
H       0.004624372508533     -0.687786037953400      2.481562187089884
C       1.451684552432030      1.445541449184883      0.345649989022667
H       2.339934076729965     -0.311760825048702      1.173912855577357
H       2.313740943968380      1.760348617357626     -0.190654963478090
H       0.610090700833084      2.944257471246075      1.593952715548664
H      -0.236987603101264      3.010425413228847      0.004197004569954
C      -0.551400150346142     -0.013699092145879     -1.162239789956064
C      -1.410339327472656      0.490432175876171     -0.088497421984288
H      -2.099802414697554      1.263602071753695     -0.453798975801618
H      -1.894993046876302     -0.373024516025933      0.387939529941089
C      -0.496430031026947     -1.484331691097568     -1.318926137318626
H      -0.038619990728387      0.722775008446335     -1.861621937347052
O      -1.395082608969684     -2.066352856981494     -0.736519787407619
C       0.457008857658925     -2.299805378015926     -2.117120704882398
H       1.276249575483854     -2.525751459458365     -1.403553967114887
H       1.012536242809906     -1.688897867391722     -2.863459337559729
H      -0.003438282373865     -3.259308084698497     -2.366500732073499
