22

C      -0.054358877019910      1.818292036192819      0.978000695886790
C      -0.885130400871850      0.756600608199369      1.646415371213540
C      -0.008396110223220     -0.265458063823011      2.008732505439470
H      -1.784426625062059      0.987833627452589      2.204802340157830
C       1.193718366157370     -0.113870754970751      1.298685222592910
H      -0.262245946600830     -1.114433596881321      2.628290239716101
C       1.120422421893490      1.020418721708359      0.528661857645340
H       1.993221352956530     -0.841390399401481      1.280148592263270
H       1.895057938714940      1.397305068361709     -0.125190678932640
H       0.287890694966570      2.516734345025499      1.757598249308760
H      -0.555458155466170      2.403955993682249      0.209272238163790
C      -0.700163294135400     -0.034993348405441     -1.014957068363840
C      -1.714487045356380      0.033886352619679     -0.075679580887860
H      -2.449619693011539      0.827769164010049     -0.151553653547790
H      -2.075477670016270     -0.904102434507051      0.329249252262580
C       0.037995126778830     -1.276911931387211     -1.164452438837120
H      -0.512837261450720      0.773727152348119     -1.710901131945380
O      -0.108000216134870     -2.202618371901111     -0.379100983467770
C       0.980229405324210     -1.405757663678131     -2.335145058936740
H       1.363078896085740     -0.442711049025371     -2.678088653987070
H       0.434233439777440     -1.866991205201431     -3.164376608054930
H       1.804753652694100     -2.067284250418121     -2.070410707689250
22

C      -0.138341615687264      1.826834323455294      0.903525181678477
C      -0.809419936026500      0.895239595790741      1.866784178639488
C       0.017479710175649     -0.148126979287239      2.079857997621193
H      -1.792059798841328      1.117045811415248      2.321616195750212
C       1.173777665212643     -0.124263220165282      1.236634613704225
H      -0.244705503721314     -1.010684107886678      2.812075403284302
C       1.061364343174931      1.052435282920371      0.492785135580768
H       1.957776415410800     -0.888643395925281      1.184438141149082
H       1.890742300300302      1.401095742739864     -0.171074573772248
H       0.204748185454757      2.798948738902368      1.311555850544796
H      -0.791747104074159      2.093716701628958      0.037086195568483
C      -0.948773048846745     -0.144825698936194     -1.301236192019364
C      -1.958858272738060     -0.139515115109342     -0.484077354246474
H      -2.777962037891681      0.651457623604207     -0.389633633818125
H      -2.050732557431343     -1.022302298870297      0.182654691222909
C       0.012517390281044     -1.303543803802994     -1.337281064714551
H      -0.839064097278680      0.581048746542328     -2.105050969171301
O       0.028497825575555     -2.093685414516969     -0.400811650640895
C       0.915017293186945     -1.403812101775175     -2.470138620972591
H       1.145836693232450     -0.468704455734491     -2.925782194402322
H       0.472449217426577     -2.207299612009733     -3.130714057529884
H       1.825485787496341     -1.773376994600996     -1.983274941589252
22

C      -0.106198913058393      1.924069544618901      0.910450336876391
C      -0.626833690625185      1.152127496083611      2.048479885860698
C      -0.001219654298447     -0.023140062862095      2.188358365866652
H      -1.498740848020955      1.426539431620870      2.590158415131468
C       1.120512855573573     -0.041915380511898      1.228560270328373
H      -0.168547503630005     -0.826970285789314      2.814108640991551
C       1.029561719480604      1.028671779985199      0.458671437722348
H       1.908111394519787     -0.787381945367326      1.148384918203854
H       1.791227179566406      1.341782027579810     -0.219058668920661
H       0.225409562499222      2.969302035535284      1.023013412574350
H      -0.930613453237549      1.946528423709248      0.174266276028164
C      -1.192606844273783     -0.401349031397933     -1.589329314735037
C      -2.384636926151372     -0.421696728479725     -0.942340369373093
H      -3.071519629602992      0.402917580868135     -0.988886989010423
H      -2.656426506090799     -1.202797945830915     -0.224367342881445
C       0.009440329193528     -1.314151476949175     -1.466325211352182
H      -1.086658397264237      0.320968602864942     -2.448146313128373
O       0.057281862341502     -2.025880750234948     -0.461694220770470
C       0.984897744466679     -1.391140537598360     -2.568843038026886
H       0.898515319955397     -0.551306704143430     -3.290162155577006
H       0.764211458841291     -2.315317490760669     -3.147299027250688
H       2.021726463234362     -1.574022511994191     -2.179898015506790
22

C      -0.027915475338998      2.003507229507735      0.847529659068315
C      -0.591540886659364      1.346559470097231      2.094644510878701
C       0.183127562324603      0.247141436031262      2.403904295140293
H      -1.427763324122518      1.821887300204222      2.667358157614703
C       1.086273364825683      0.053640633335867      1.284372292151580
H       0.101313175483529     -0.395770857729655      3.313255533650121
C       0.985796111499126      1.046136277787110      0.399623150463372
H       1.827837859325331     -0.774131115997549      1.278374037218646
H       1.682463565022318      1.180118946377287     -0.425831982571144
H       0.416104379664395      3.001344518532341      1.125607819025959
H      -0.872661063964987      2.109492376025051      0.149802647133674
C      -1.375846779961100     -0.565242414472634     -1.874953555444360
C      -2.605388141958697     -0.810447331300306     -1.408007589598937
H      -3.476432423861506     -0.197966240940783     -1.621778612653307
H      -2.592596858014621     -1.496215821613273     -0.570237913543906
C      -0.183991876760079     -1.375399256128403     -1.562653078638798
H      -1.170284317733902      0.138287347671327     -2.722156024156182
O      -0.020662722685555     -2.122035585675776     -0.598482862077484
C       0.972562872250064     -1.280576933378156     -2.572542408234140
H       0.660441680003703     -0.478315164309562     -3.350512308810838
H       1.177917200868926     -2.215368550461520     -3.117437477379863
H       1.971736784218870     -0.954080324137070     -2.162543741517899
22

C      -0.024932743079827      2.062599430595619      0.822633025124245
C      -0.423526439774952      1.630246815182489      2.171986485394287
C       0.254806845624114      0.496757755565466      2.487914013047189
H      -1.047865834190947      2.251421335356449      2.793404546207443
C       1.154632701540384      0.190525029569792      1.373400820511895
H       0.248990521322481     -0.098715592506200      3.429519931055384
C       0.957160153452430      1.052209466875049      0.330665245485913
H       1.822150574105154     -0.672219712667996      1.287451385603251
H       1.390012710511492      0.961279405510391     -0.691985059244469
H       0.246075559277956      3.147010981030919      0.741869510220705
H      -0.890671161308777      2.036763727395719      0.072491731521125
C      -1.588566074463237     -0.748614600935162     -2.156961767038602
C      -2.695049767348472     -1.236308255706422     -1.667811889303786
H      -3.757176423417305     -0.873004505351705     -1.791915345802682
H      -2.522080649141802     -1.865373136634439     -0.749765171919602
C      -0.325054907954770     -1.452384826040333     -1.764017028275243
H      -1.528058754212953      0.008237414983393     -2.916263062889645
O      -0.303279959208179     -2.187037305121163     -0.804107879149135
C       1.064054676086256     -1.168320891770876     -2.503223415120254
H       0.908222492105826     -0.522233026612860     -3.383799488384966
H       1.540360785768639     -2.086721394770405     -2.952614410527892
H       1.799997184191806     -0.601103881716856     -1.855161453466508
22

C      -0.095305871241545      2.123000480948516      0.746737288656795
C      -0.304282491009144      1.888420189778873      2.206316329606119
C       0.369212781348291      0.828492661226232      2.547550764823147
H      -0.817294200171174      2.639059613123166      2.852494877561299
C       1.095226880322523      0.280555245421548      1.384111638967245
H       0.485263651554789      0.439807009344170      3.515516181130109
C       0.945020874136635      1.116590136332666      0.340796067815696
H       1.700538802759775     -0.602188514201829      1.369155179527384
H       1.372143987652591      1.017674434425269     -0.601054161619970
H       0.058782807297966      3.207621883931931      0.500101782083452
H      -1.048769661727107      1.739202914974988      0.224955756564184
C      -1.679172543502487     -1.055662445060251     -2.458695342862717
C      -2.805730517728383     -1.564593172204971     -1.894726627410331
H      -3.787253773329851     -1.137579195180105     -2.031906992101117
H      -2.718774904420284     -2.126677818425825     -1.007000291569487
C      -0.336222407047772     -1.493965532452087     -1.877394901539000
H      -1.567404588481754     -0.350128284190771     -3.323129708568461
O      -0.419605597992959     -2.332100165503139     -1.037848231800444
C       0.962285618801466     -1.041664729862339     -2.377750904182204
H       0.963808223750474     -0.237530426858552     -3.115638036939903
H       1.374596718357052     -1.987273199673486     -2.768620066451279
H       1.615623150679115     -0.846866312091681     -1.570294068301155
22

C      -0.110471054901593      2.267604754120013      0.760082077540648
C      -0.299613906864272      2.145882491117033      2.196944659656959
C       0.483759370020174      1.079189734067166      2.588147294361748
H      -0.925766474500505      2.686007420830045      2.873952822067054
C       1.164344291142177      0.502012954691455      1.478937344692026
H       0.450964570610979      0.761584107827659      3.689595347772248
C       0.767425531551370      1.149703170333183      0.361543903944198
H       1.886278756353013     -0.343778287090825      1.543770252439444
H       1.201453367318242      0.921220786989271     -0.643220212169366
H       0.424885030036259      3.224095369840538      0.567700089817905
H      -1.078204769346074      2.373773615126684      0.201203717435265
C      -1.669708968375056     -1.308734601537980     -2.600039646176650
C      -2.926842346821210     -1.774276098465056     -2.307485824513767
H      -3.847854600544385     -1.427151421408272     -2.773797244723009
H      -3.016333479892373     -2.221173444175248     -1.245484941089644
C      -0.398987838482734     -1.734758516666784     -1.990747417268083
H      -1.604247788561997     -0.638172469055963     -3.472169652069017
O      -0.360067794223856     -2.553856989872270     -1.106725628289653
C       0.753474102841803     -0.978107103484863     -2.428616819661564
H       0.558669553033864      0.073031085209217     -2.591111634351628
H       0.971660366241216     -1.405949455530126     -3.384169697612511
H       1.516054322604519     -1.153716843560547     -1.694863481466415
22

C      -0.203546057967211      2.423955020995089      0.795984034634874
C      -0.291616620756365      2.313509455997208      2.231417552688742
C       0.551392241426904      1.361390094556679      2.698446995523940
H      -1.040177242464539      2.775967229080498      2.906288792094262
C       1.206425151413528      0.684813727580568      1.586308762973366
H       0.577510158565059      1.078405057740036      3.708938360037111
C       0.820975803782737      1.288524163927812      0.459634034606942
H       1.876969462439086     -0.133364759904209      1.726579329766243
H       1.159660036567291      1.076121202411739     -0.516598972158301
H       0.253505821718332      3.399243557271928      0.571946178780830
H      -1.133822873574934      2.339656678590705      0.260069402323603
C      -1.767455655147507     -1.551280994678853     -2.815252443808604
C      -2.930972172660229     -2.154787282860245     -2.632742992484713
H      -3.900282806134861     -1.648727896911827     -2.904379329853074
H      -3.008627907532989     -2.933390832726432     -1.849515478938039
C      -0.480011133271592     -1.897387932596995     -2.155988432709929
H      -1.701632262313045     -0.804137521795203     -3.547327456504537
O      -0.425942784315866     -2.647240213565931     -1.221020355401079
C       0.636383850064669     -0.945709088332288     -2.576021794926883
H       0.425722455482708     -0.000928016358145     -2.120158670635957
H       0.618776896246841     -0.837760600239803     -3.658227866473339
H       1.669599828871242     -1.320663792855385     -2.307419892502725
22

C      -0.261416860626069      2.422769501383447      0.790136051883017
C      -0.267268406824352      2.540025194495698      2.291686174436644
C       0.476908164125860      1.591856594684235      2.822023898573212
H      -0.978219669395189      3.202442632855233      2.827495226671747
C       1.286139538024993      0.926212250283075      1.783271003456325
H       0.452764044026050      1.279143612757400      3.861887483149564
C       0.949828204433908      1.504282736206277      0.582027179186472
H       2.040918819505134      0.138469215551580      2.047479830605427
H       1.412455506079093      1.271632424913819     -0.400166395132687
H      -0.364521024308835      3.419912024228201      0.345761852652271
H      -1.152437227844076      1.860484295920247      0.543069091718108
C      -1.979947366493784     -1.692753441129676     -3.075316450823341
C      -2.870447870953829     -2.649324287256246     -2.855533044403805
H      -3.887373368138367     -2.572649675766589     -3.212159916009449
H      -2.767347006312775     -3.348457626993103     -2.048677803014444
C      -0.647112441274191     -1.854309421674512     -2.297941626456162
H      -1.865900288000855     -0.982580636789092     -3.939120614722715
O      -0.480372594206420     -2.745919330792080     -1.501328495916461
C       0.585179258914291     -0.992915336659972     -2.663019788649092
H       0.773909971648377     -0.022268878352991     -2.191454380294957
H       0.560650260654342     -0.716843358262821     -3.770348706930808
H       1.489852611479705     -1.546199754926252     -2.390086822584724
22

C      -0.205860686475615      2.553367404521634      0.836558541970841
C      -0.447237776812941      2.591551879137683      2.309738344370326
C       0.519367284580842      1.908982040313978      2.987858663584575
H      -1.165558449136550      3.234809393162990      2.682277877236598
C       1.399670305932444      1.275508746660786      2.019295509381786
H       0.569607425330098      1.773255876544019      4.088837881138311
C       1.031694973132155      1.615614741131444      0.719701198815304
H       2.218503116973165      0.636501578094314      2.321528465654007
H       1.389150165046286      1.142181903657567     -0.268315334282190
H      -0.060061782121851      3.618083855376739      0.502630843320343
H      -1.059480228096375      2.251458324179655      0.258834562215295
C      -2.004815094759965     -1.902803443726104     -3.272075626459470
C      -2.866355627913026     -2.985123300235648     -3.162524107992386
H      -3.918312470735123     -2.974632891861400     -3.433402597768100
H      -2.504431957507227     -3.716532269417816     -2.373239978149567
C      -0.688209437881933     -2.094406768415250     -2.590536543159446
H      -2.131776678831918     -1.056080575665024     -4.003731648921330
O      -0.588562930187617     -2.885827922162046     -1.628084776219012
C       0.396686464978503     -0.990443083058391     -2.853025068587558
H       0.001486592817742     -0.180449380886049     -2.172744050808828
H       0.475219387676743     -0.663601166001581     -3.931425068979729
H       1.399300479141375     -1.332127790526958     -2.562605119276352
22

C      -0.194666427199150      2.665478312303980      0.902393890201517
C      -0.504685525197755      2.738610578211911      2.399485043652453
C       0.516573035273926      2.232097302834151      3.115057717449626
H      -1.411520954393120      3.327568514876783      2.738744962084453
C       1.425834811555460      1.558155013262505      2.159589288611941
H       0.669711953235799      2.141279184350045      4.154593940652124
C       1.028817510842037      1.675721265420732      0.905283831571310
H       2.263416006887450      1.041695282026911      2.590169602929484
H       1.430453846242856      1.160491169796681      0.093811048944768
H       0.164146626396137      3.693019610881154      0.621759267345268
H      -1.081222383434524      2.411236355968652      0.332523552862488
C      -1.992068183594466     -2.260883063883102     -3.519685731569157
C      -2.917346970050877     -3.223868111718716     -3.516589234049180
H      -3.810549438609232     -3.220381428111596     -4.188296956821578
H      -2.779130482073479     -3.800453139576832     -2.638583470220658
C      -0.769248932827246     -2.149923045246663     -2.674859706511159
H      -2.073784451118570     -1.603229758035605     -4.341515700203960
O      -0.518540063195027     -3.020536467888290     -1.843892770756662
C       0.175846373594037     -1.050887497442771     -2.992012283298501
H       0.090695327023293     -0.130537426302761     -2.312919741537515
H       0.230021197211319     -0.681909353798305     -4.002609729080146
H       1.191530478999526     -1.420845455929655     -2.594772618728585
