22

C      -0.054358877019910      1.818292036192819      0.978000695886790
C      -0.885130400871850      0.756600608199369      1.646415371213540
C      -0.008396110223220     -0.265458063823011      2.008732505439470
H      -1.784426625062059      0.987833627452589      2.204802340157830
C       1.193718366157370     -0.113870754970751      1.298685222592910
H      -0.262245946600830     -1.114433596881321      2.628290239716101
C       1.120422421893490      1.020418721708359      0.528661857645340
H       1.993221352956530     -0.841390399401481      1.280148592263270
H       1.895057938714940      1.397305068361709     -0.125190678932640
H       0.287890694966570      2.516734345025499      1.757598249308760
H      -0.555458155466170      2.403955993682249      0.209272238163790
C      -0.700163294135400     -0.034993348405441     -1.014957068363840
C      -1.714487045356380      0.033886352619679     -0.075679580887860
H      -2.449619693011539      0.827769164010049     -0.151553653547790
H      -2.075477670016270     -0.904102434507051      0.329249252262580
C       0.037995126778830     -1.276911931387211     -1.164452438837120
H      -0.512837261450720      0.773727152348119     -1.710901131945380
O      -0.108000216134870     -2.202618371901111     -0.379100983467770
C       0.980229405324210     -1.405757663678131     -2.335145058936740
H       1.363078896085740     -0.442711049025371     -2.678088653987070
H       0.434233439777440     -1.866991205201431     -3.164376608054930
H       1.804753652694100     -2.067284250418121     -2.070410707689250
22

C       0.068946582908498      1.938856117437793      1.030296241344450
C      -0.774968074999773      0.900129069502205      1.618109544887825
C       0.018702999963058     -0.168018023672044      1.936049460600097
H      -1.733093881866427      1.013156277784101      2.175286124274439
C       1.247348912009352     -0.049596484158561      1.243965058151539
H      -0.315446231839443     -1.076738431259820      2.416575656541359
C       1.197436918550585      1.084894134321782      0.512334703125499
H       1.980856042309482     -0.854810595269022      1.204039269380434
H       1.962581190700647      1.634251109509316     -0.234533535934749
H       0.524591313375788      2.553810317867524      1.847412235618606
H      -0.413581310962135      2.635136426305288      0.373008691090343
C      -0.466621526416422      0.064511624469286     -1.131393208320894
C      -1.546701802414072      0.317216894374865     -0.309963288473167
H      -2.072129359163137      1.319404420661387     -0.448574768872855
H      -2.121096318914116     -0.518136855894927      0.124498805714486
C       0.191652227124811     -1.230220987721323     -1.217919072585616
H      -0.117127708879752      0.951294859943080     -1.837080657508805
O      -0.053785410211952     -2.069163193424156     -0.300859282625938
C       1.189181130564007     -1.499892525320412     -2.291357349584334
H       1.079199174006893     -0.752311961050731     -3.152540555044628
H       1.037726267283882     -2.548808177740266     -2.606144156729136
H       2.152608270126160     -1.403445380689291     -1.754916590241557
22

C       0.273958954991646      2.014246563813334      0.984011270464432
C      -0.605038323787321      1.100598800054884      1.723858479514066
C       0.114906830204788     -0.029513023453126      1.962768956702674
H      -1.551460902925822      1.288450976201188      2.195737683905242
C       1.359622436812427     -0.042641133032961      1.230558740120055
H      -0.429208422179411     -0.874104549120542      2.560050003718991
C       1.447614692913037      1.200787884534816      0.604349691599850
H       1.902153031839211     -1.010777351334776      1.221563394723417
H       2.212961411258181      1.610681614258736      0.037578120604695
H       0.714752128975799      2.793483674607740      1.643015527861620
H      -0.204960359490666      2.615266689394439      0.152751122876074
C      -0.340773268942710      0.214320233502958     -1.355887251244464
C      -1.487532329028892      0.419930133126506     -0.715120633802951
H      -2.035241205412847      1.326455035906461     -0.779425087486696
H      -1.918211199525039     -0.429289678012245     -0.094462278327263
C       0.267283088753692     -1.153313136936609     -1.222577814406772
H       0.209044697450658      0.983626762451077     -1.852568878870411
O      -0.168901703897370     -1.913660581697620     -0.352996062796137
C       1.371089175073543     -1.561442270138391     -2.121319653678770
H       1.060968409231175     -1.578611911493764     -3.198065580145619
H       1.727434498357916     -2.596404439997959     -1.889626581450022
H       2.266883362892476     -0.873528192608374     -2.044469598085947
22

C       0.513587944674060      2.115585003047698      0.989387738827175
C      -0.327867276300981      1.303859146868056      1.876560389238646
C       0.195585512577832      0.093655453159835      2.076168820504374
H      -1.285385155177618      1.575727566368932      2.330313684470859
C       1.504600156367550      0.019706681210894      1.426787086758738
H      -0.276608700008836     -0.666914343565146      2.584963459256279
C       1.731583077314557      1.223795462986323      0.779282203233517
H       2.121490582787994     -0.859768872656925      1.354536713947946
H       2.616645752992961      1.670242806072810      0.259429166495123
H       0.855443208644999      3.085181554867194      1.406845274243678
H      -0.030316383331966      2.261336435577132      0.000895561571888
C      -0.323808605902724      0.221521319740473     -1.624934651250092
C      -1.578857247966104      0.512809134568914     -1.276659987942296
H      -2.071558682149115      1.499847775372889     -1.480553006409020
H      -2.122744014772147     -0.197815213455240     -0.747381388908552
C       0.263298293581342     -1.077949832348787     -1.261038394862134
H       0.341149893177541      0.926131023361403     -1.979630858877947
O      -0.284011614417154     -1.876298904530433     -0.540463158719191
C       1.614670471776954     -1.452405836628696     -1.946815793977400
H       1.401640655523926     -1.884193133328507     -2.911625588754843
H       2.227486358340699     -2.188730588449317     -1.362153652478359
H       2.216404087977716     -0.506956967376125     -2.153114788111929
22

C       0.785120168872600      2.176396556415672      1.036988447461277
C      -0.135008516441053      1.412855804647877      1.968703870163549
C       0.360615675552209      0.237607845573863      2.286086158857997
H      -1.165485326993344      1.785138887014613      2.222765406705488
C       1.687458300501500      0.105026120763477      1.574928544503675
H      -0.029595099822933     -0.640209626849794      2.852342319310793
C       1.904272791594333      1.223677123616280      0.900985311855607
H       2.256398065110541     -0.823038243986698      1.580933446314965
H       2.918641731246526      1.420195821477879      0.329226639225772
H       0.990772052880353      3.208390873239156      1.419650640028409
H       0.247115430813224      2.275816247029036      0.069905566264692
C      -0.367566193319889      0.155104896083757     -2.004181310001889
C      -1.578580481150115      0.661405210915406     -1.679776741883193
H      -1.834895471260702      1.680325380240540     -1.931462125024718
H      -2.205382336321176     -0.053621274492720     -1.080962663257580
C       0.260827466582960     -1.039730788023670     -1.397160034523469
H       0.403883443187846      0.858270995683744     -2.475187189899411
O      -0.375555484525597     -1.855416408889959     -0.808334980006773
C       1.756227786996788     -1.195605815432576     -1.662682759841106
H       1.905233276433533     -1.929475532604832     -2.470436348997120
H       2.288772362870927     -1.613533017198856     -0.835040792800127
H       2.248796615404065     -0.234351737937871     -1.922826728222227
22

C       0.994143263088780      2.214200539605367      1.104187108135471
C       0.022369857523992      1.572906239009987      2.078869035583043
C       0.579173112419794      0.302391248843934      2.454308472871426
H      -0.901093306394420      2.115967895718181      2.246045869615759
C       1.838767796969257      0.176587178603510      1.844779355351217
H      -0.011667673424420     -0.415965624707178      3.068673886577396
C       2.112869096336049      1.196214128708778      0.982724368138634
H       2.486874090303835     -0.687688576335993      1.824967981253994
H       2.939120563229991      1.206895096527729      0.407785203446038
H       1.338883683628059      3.172934847708639      1.498319076335888
H       0.497608948899095      2.494200893791531      0.177358157223782
C      -0.283273648226765      0.256437225555848     -2.268842454919423
C      -1.588707235138544      0.550906028076450     -2.105690941641670
H      -2.269383860615906      1.287170227785263     -2.541302229640564
H      -2.162072942797214      0.009445915372682     -1.246754805817201
C       0.298394616577327     -0.912700916204090     -1.588561599068500
H       0.462383158470444      0.915132078270486     -2.919185916544433
O      -0.443494030283015     -1.684986453121876     -1.081162159748004
C       1.786084363960919     -1.060929029879853     -1.471160199025195
H       2.076447379060330     -2.001233218785056     -1.985169728211881
H       1.949211066727829     -1.184420638616827     -0.386959780905082
H       2.325777388693082     -0.259419431341252     -1.836111021856224
22

C       1.231604789004928      2.246335774611200      1.158647973929455
C       0.196953372332123      1.648495844611355      2.051915109887797
C       0.660016685784502      0.536254970487717      2.670859756025087
H      -0.801166912050607      2.109577966926194      2.293717195130269
C       2.047798511514380      0.256212341913110      2.035294769512834
H       0.312593607123319     -0.221899513927922      3.292483495395072
C       2.378663656021347      1.237057948375312      1.240434530165981
H       2.627954236578095     -0.687614890101196      2.117631915612411
H       3.367112564273521      1.207714718630912      0.623367886584856
H       1.536882447896763      3.188783504988543      1.599838264317323
H       0.849257956892239      2.456585005034438      0.150019331712938
C      -0.283073281956890      0.327976336167663     -2.464572118758223
C      -1.611610882459357      0.449761346003913     -2.624421212904935
H      -2.100030557909935      1.378197273572944     -3.002835612593945
H      -2.151212660220581     -0.380990782837393     -2.240731357686817
C       0.261122099745602     -0.831131453546290     -1.664447769775103
H       0.523396685164505      0.817830543183449     -2.988507728278589
O      -0.448272934351664     -1.608875193096314     -1.141137823796588
C       1.727889889970889     -0.922115118668673     -1.520451070814698
H       1.974674783891240     -1.946132446541737     -1.412242702836374
H       1.994034562799649     -0.423554723942191     -0.575755786746987
H       2.276084237573385     -0.415432124185744     -2.341051738113229
22

C       1.512165459690128      2.256836473709992      1.177834411793966
C       0.356726985552547      1.763068318390096      2.110991375222475
C       0.796042497711831      0.614104861684989      2.642556133757004
H      -0.563763007821929      2.317358091839335      2.172014073154291
C       2.195327560681277      0.378637435270372      2.382298350575639
H       0.055196641272805     -0.078545504017419      3.253598471254406
C       2.680734365883671      1.357184045663451      1.535237073013260
H       2.799382155186934     -0.468290283430582      2.719214485858888
H       3.715632821056917      1.352600343946753      1.107518891487531
H       1.684636006850822      3.313288698236589      1.212074154474593
H       1.215081844160230      2.023012464296399      0.120312546828174
C      -0.378974306702635      0.365225147600183     -2.507218454592551
C      -1.606280434463579      0.372389819081595     -3.103238266333793
H      -1.921560574445700      1.134355426516727     -3.797463522177650
H      -2.376523134859196     -0.389117475947389     -2.850455357829401
C       0.199882373760471     -0.767371153012052     -1.766878177287327
H       0.325148942223193      0.983864515531063     -2.912026655266614
O      -0.497786844943979     -1.543691363078823     -1.182105601973804
C       1.757350912137140     -0.794908447569663     -1.678934739716667
H       2.191562330485516     -1.644283550724284     -1.033007233928345
H       2.100949068248207      0.166606863317812     -1.285944836643354
H       2.187444355444229     -0.936578246274850     -2.729214143539160
22

C       1.774782334906059      2.266406360331641      1.205633967241248
C       0.536870097659057      1.758358934939443      1.900160836036389
C       0.888392696231946      0.758622509280174      2.769164613298943
H      -0.518783063600320      2.072037212602180      1.775015678057406
C       2.312169617625745      0.511532827513941      2.644123923117404
H       0.159245259923018      0.217664806097438      3.404973273364656
C       2.906339838210606      1.478378612622262      1.870315481389290
H       2.800149763379735     -0.349573059149065      3.112187493152972
H       3.910885267006191      1.499114972250700      1.649509696752399
H       1.921799036131361      3.369848386810663      1.137962944158495
H       1.885969844105604      1.889266587768728      0.180286841148421
C      -0.355625785053939      0.419562933263009     -2.805161383956396
C      -1.573438112114873      0.248930636086309     -3.314036033811051
H      -2.027190431298494      0.950961295515974     -4.059238885830898
H      -2.127184635799745     -0.684800488282573     -3.023434695586661
C       0.178307711057199     -0.666625220674702     -1.877399332151676
H       0.411082430209621      1.093312228279030     -3.308447199142353
O      -0.549372848601169     -1.450807175308260     -1.327798469610635
C       1.670269736824761     -0.684399050494597     -1.663005931489051
H       1.986803075221747     -1.468489629966606     -0.847110230671811
H       2.107388409105922      0.348795769119939     -1.411798259540441
H       2.139884683553597     -0.906407556417365     -2.623711258599548
22

C       2.050797711968790      2.306308442764745      1.223786550011635
C       0.736906132411507      1.765928243881733      1.802534016660319
C       0.978504043312449      0.822977773389819      2.750235810192684
H      -0.318786607639944      1.987821997294389      1.584072767088736
C       2.425900052791533      0.765884882318218      2.968124315106249
H       0.205258424058219      0.288152910379171      3.247068126802817
C       3.034911450054646      1.508453139842651      2.064570205840756
H       2.794716076210743      0.099873657727923      3.739257604097436
H       4.184660903341066      1.645090741283420      1.886938585288902
H       2.108683466125918      3.440155751187673      1.422699293336976
H       2.192990060942472      2.071613503955224      0.185058412831401
C      -0.276639099368254      0.353081904788329     -3.126869008444663
C      -1.544065514360159      0.190437509925363     -3.511602691312833
H      -1.973493238394132      0.770116090180048     -4.312642088887893
H      -2.147748638101365     -0.533822478658848     -3.002942614998719
C       0.184987646918504     -0.613230622519828     -2.038682215801738
H       0.468390077509920      1.133162480844729     -3.581769130234850
O      -0.599864753967664     -1.369433281591664     -1.491575086876777
C       1.570777299888342     -0.573736796836749     -1.507656498171986
H       1.862253372720445     -1.551132087700015     -1.115389554114617
H       1.605720675769510      0.160262927158606     -0.649169867506672
H       2.215863472326975     -0.266898095218995     -2.363270745435705
22

C       2.271762302145484      2.331714509379846      1.324003282357624
C       0.899082516872890      1.784888000610848      1.791012615494743
C       1.074198433133193      0.918805297331100      2.825597878364718
H      -0.044206556255339      1.923192265737899      1.267237677174510
C       2.431522887275487      0.827524542911105      3.157204100619006
H       0.133445847003306      0.409858306479813      3.297744364680906
C       3.189044734136524      1.708998441136114      2.387693747124993
H       2.833344932491247      0.209755511225430      3.966764853717090
H       4.198561346118167      1.976073062025519      2.404623384735635
H       2.358534011827098      3.441381286227782      1.187722693738575
H       2.490371362565172      1.887840507429556      0.337513663760609
C      -0.210797228307353      0.111823192279682     -3.380728468888599
C      -1.473455254720774      0.303639430284225     -3.778534658289262
H      -1.623347692897717      0.949687847392277     -4.641470756143285
H      -2.379904156892477     -0.075465905843022     -3.243260215805357
C       0.181936105302063     -0.592578933411714     -2.153676869569781
H       0.484842521173169      0.723905964298911     -3.910814167978197
O      -0.661113176758368     -1.376573833072242     -1.650473215103552
C       1.542998488379614     -0.367866932482465     -1.508945428149236
H       2.042410064116181     -1.293938900601462     -1.331301072104023
H       1.560141697825300      0.251081387699611     -0.662585067719140
H       2.201767629667947      0.196551987486335     -2.222707357485044
