22

C      -0.054358877019910      1.818292036192819      0.978000695886790
C      -0.885130400871850      0.756600608199369      1.646415371213540
C      -0.008396110223220     -0.265458063823011      2.008732505439470
H      -1.784426625062059      0.987833627452589      2.204802340157830
C       1.193718366157370     -0.113870754970751      1.298685222592910
H      -0.262245946600830     -1.114433596881321      2.628290239716101
C       1.120422421893490      1.020418721708359      0.528661857645340
H       1.993221352956530     -0.841390399401481      1.280148592263270
H       1.895057938714940      1.397305068361709     -0.125190678932640
H       0.287890694966570      2.516734345025499      1.757598249308760
H      -0.555458155466170      2.403955993682249      0.209272238163790
C      -0.700163294135400     -0.034993348405441     -1.014957068363840
C      -1.714487045356380      0.033886352619679     -0.075679580887860
H      -2.449619693011539      0.827769164010049     -0.151553653547790
H      -2.075477670016270     -0.904102434507051      0.329249252262580
C       0.037995126778830     -1.276911931387211     -1.164452438837120
H      -0.512837261450720      0.773727152348119     -1.710901131945380
O      -0.108000216134870     -2.202618371901111     -0.379100983467770
C       0.980229405324210     -1.405757663678131     -2.335145058936740
H       1.363078896085740     -0.442711049025371     -2.678088653987070
H       0.434233439777440     -1.866991205201431     -3.164376608054930
H       1.804753652694100     -2.067284250418121     -2.070410707689250
22

C      -0.032953985143914      1.861849558190601      0.993917619768045
C      -0.885659818300491      0.702493921566107      1.546652833279638
C      -0.014453367991952     -0.342904157102128      1.994536945351438
H      -1.759464451665262      0.893874704893624      2.103485874736881
C       1.209399170856662     -0.223446440258101      1.313219433637413
H      -0.219261307058818     -1.055325680639126      2.873053039914591
C       1.177732719616918      0.965968770319173      0.658371437353798
H       2.086983807981650     -0.901340972039195      1.328278347676236
H       2.027611078665843      1.301656402093289      0.082387395451123
H       0.260403492845271      2.530026839872675      1.798142927084837
H      -0.536253230687554      2.436580741572132      0.180670398770466
C      -0.784223063461508     -0.089238836710377     -1.104191782059368
C      -1.759378283368520      0.028105440789725     -0.069008587268202
H      -2.536073576216668      0.777827879599514     -0.168062076884242
H      -2.114060567317220     -0.932240811322117      0.230678179857425
C      -0.009180981983727     -1.311375939194469     -1.213590210675680
H      -0.542347699278869      0.738531434520571     -1.787983342496644
O      -0.209147717459876     -2.231787930797589     -0.367933545783066
C       1.013389420386336     -1.456517695875460     -2.326895917281270
H       1.547988652821251     -0.456004820438567     -2.540495634845553
H       0.591320959173483     -1.879099422049496     -3.258868450352990
H       1.781651963056120     -2.161669518367487     -1.945767889848158
22

C       0.037765628317648      1.690272326545795      1.015297070304268
C      -0.940044447224829      0.616226243446054      1.482417923362952
C      -0.070920638108577     -0.359415809987540      2.000725837183223
H      -1.770795156937040      0.969347998638200      2.080780335910432
C       1.209907190611271     -0.245133303062465      1.356345182861491
H      -0.471837567698832     -1.252997020186095      2.596071691958113
C       1.281393308706647      1.000296974997649      0.688844277854342
H       1.971830801401391     -1.064108851870355      1.335148158036536
H       2.082205557862503      1.503304496899210      0.109028285065768
H       0.088700969304594      2.355315701327693      1.868622244291823
H      -0.210214976061255      2.351966853680951      0.143558155571462
C      -0.824466061414320     -0.118676152545724     -1.135397245456889
C      -1.730780027941202      0.000650472695051     -0.092471601151276
H      -2.432929705364736      0.835388400792055     -0.223772056997518
H      -2.149448226818296     -0.886920898170879      0.354944429263241
C      -0.117212536783555     -1.370569685713928     -1.228124117707515
H      -0.767497114920298      0.669915352871407     -1.909306490064529
O      -0.293305058208288     -2.214106285423298     -0.407255536222553
C       1.056187412210442     -1.526176949799016     -2.243305406170049
H       1.573228561149588     -0.484627014625557     -2.442506320521252
H       0.611521890697930     -1.721211748595449     -3.276922990498483
H       1.809204939273941     -2.359326812453797     -2.054973224554450
22

C       0.044392850529308      1.658192425546021      0.977911803094481
C      -0.966862215667044      0.598132132227016      1.398573267422584
C      -0.093622032211587     -0.458227284384783      1.881034603438494
H      -1.874792938717773      0.853870234028082      2.027673999491983
C       1.181275915889850     -0.246444197992480      1.411010800306424
H      -0.327859037798010     -1.389629408819282      2.351251731732714
C       1.336700880308767      0.923807770273532      0.779525119285231
H       1.917615042533746     -1.029068498304748      1.432816674828870
H       2.286478347994763      1.260782392504913      0.286791257677773
H       0.319152792981927      2.228595205708401      1.905287242908401
H      -0.410281707229096      2.321746257989711      0.233500992195913
C      -0.826736736042066     -0.162149814392801     -1.196581210574514
C      -1.734411954536240      0.041847201685875     -0.041542614625546
H      -2.505729315908618      0.811370988871930     -0.239896118941426
H      -2.240740511727581     -0.949683509173633      0.135087957901294
C      -0.077765217413231     -1.394573533370046     -1.224255910621123
H      -0.710075484595663      0.595125485105175     -1.969282810367412
O      -0.388377596237440     -2.272812113703360     -0.381888966317429
C       1.013387308081006     -1.553015308537272     -2.225975575291852
H       1.770393185826180     -0.675815869056614     -2.145380152378483
H       0.626662629761158     -1.667631750645055     -3.293761497710145
H       1.564441794614877     -2.476325600709794     -1.853515523165388
22

C       0.054427128357802      1.729884067432661      0.974856795099668
C      -0.948728345382945      0.511330576080166      1.271778605803957
C      -0.144562054839517     -0.612601110678305      1.785024027944012
H      -1.744016886348968      0.842632366646172      2.025112405083977
C       1.193640423599363     -0.405923646528136      1.443321986646111
H      -0.596716898507317     -1.361439767732446      2.335496098928454
C       1.286870764957467      0.889787247329813      0.767129018318735
H       2.074253628091375     -0.990404196376752      1.712353757472987
H       2.265036377220627      1.359284960550698      0.557290507089410
H      -0.008915729924830      2.406854379171396      1.885324557516562
H      -0.131228339422603      2.372223225111375      0.102884145658446
C      -0.815002475819551     -0.154520858369362     -1.138773286367820
C      -1.719790649050250      0.055767200310210     -0.089247587229895
H      -2.448446033136963      0.885826650373394     -0.277575230301235
H      -2.221127990026287     -0.854920793996462      0.317658696868222
C      -0.139055788011626     -1.381440465971840     -1.166221060590973
H      -0.554178288124574      0.559419775201879     -1.893859022807872
O      -0.425694627128676     -2.322427921497801     -0.384313580978720
C       1.011766079298715     -1.618988713686945     -2.151528220052304
H       1.786501955232932     -0.845028502985334     -2.089286988078307
H       0.657981710768921     -1.518408832040928     -3.213008922173878
H       1.434694379557496     -2.658470340426783     -2.106252367181928
22

C       0.017166474698003      1.590330050315099      0.942851921436949
C      -0.935148179285768      0.505192461796222      1.149507354716057
C      -0.157037645620244     -0.665319147868955      1.695934795732103
H      -1.717903243210617      0.763717824992385      1.907189831064430
C       1.153026257276576     -0.430615669451134      1.430233059077152
H      -0.604435802865593     -1.562869995766770      2.135667729548048
C       1.249082001570344      0.797683552785789      0.860158156568011
H       1.968477414976985     -1.161203475096950      1.538315917565930
H       2.132882789145852      1.344304605758530      0.633372826828317
H       0.219483056244359      2.242150522669037      1.854275840679884
H      -0.212591636208037      2.228272616444467      0.074604991609724
C      -0.699775218458761     -0.122923192945429     -1.092409733010332
C      -1.779750211599782      0.115453908884871     -0.088244103544405
H      -2.469041150280602      0.951317592668159     -0.314845320303692
H      -2.328982256843625     -0.798159857078510      0.098266930930026
C      -0.120283153397429     -1.480584806339239     -1.130084490589365
H      -0.533544207441411      0.701627347238685     -1.784873876626378
O      -0.458265309957764     -2.339057133426756     -0.363284377560998
C       0.989777452330915     -1.649088701265645     -2.108636093922891
H       1.821399615072451     -1.054087309761320     -1.850791480795030
H       0.583814675460481     -1.346196048658830     -3.061650826718049
H       1.305368707997105     -2.677773001942982     -2.074482096169308
22

C       0.049886063992910      1.504365772339701      0.901737935444501
C      -1.075728394911232      0.406909013661671      1.247799398145604
C      -0.233468935478197     -0.713866027599657      1.641842739569519
H      -1.792050935354553      0.784890437650039      1.989499101556021
C       1.108299597132810     -0.529295488992600      1.422917714412319
H      -0.686955326934314     -1.703845367782519      2.014993077236531
C       1.343947337081700      0.783022744426704      0.854868631148100
H       1.885404172251467     -1.329463723701808      1.460279044697439
H       2.340350911872191      1.110765230880493      0.620633694823643
H      -0.055986758349058      2.135873952207555      1.821720404958475
H      -0.198788192535531      2.247952713505901      0.126110854177629
C      -0.645794563267729     -0.139631583734830     -1.053870849521316
C      -1.790081159245239      0.124654505646357     -0.199043595642572
H      -2.350880610267029      0.996510701039910     -0.460074691901141
H      -2.421114423346809     -0.719225145911567      0.003617343766455
C      -0.135903185996466     -1.410814729793287     -1.102982031789814
H      -0.186725150944855      0.480335713167064     -1.843325477958491
O      -0.500677228021293     -2.367491508491394     -0.313794314304588
C       0.993766678261500     -1.677781335496094     -2.105466422111071
H       1.830578718169080     -1.159808234637916     -1.728721729111676
H       0.951093211808214     -1.251414440874583     -3.085488957910827
H       1.170760769757834     -2.711776539396660     -2.228619722882103
22

C       0.036285274458197      1.457122980509410      0.992533088450483
C      -1.069105987375861      0.401049271247817      1.246806335036099
C      -0.299574073750796     -0.820980327540443      1.691678114035195
H      -1.896291704771345      0.602790461503034      1.897757321011936
C       1.077877202757748     -0.587489356230211      1.379548487301078
H      -0.747828353502651     -1.720923373957561      2.188140626132370
C       1.340480131653184      0.626462708875062      0.858197392487113
H       1.806185169583229     -1.340812160171712      1.606186643156269
H       2.233609260880901      1.171948870139366      0.497667672027484
H       0.193327643850922      2.137282543138414      1.856938084118257
H      -0.088410993844966      2.028667938840360      0.054034090965772
C      -0.679455115929128     -0.158517948152939     -1.142512812587581
C      -1.792417282705199      0.134816724941044     -0.268352297665283
H      -2.314525313623722      1.041505045981279     -0.526708555720548
H      -2.461930844823975     -0.729251397504667     -0.235569789987098
C      -0.111875885794750     -1.484877161446734     -1.134991838974369
H      -0.270903764249949      0.743799329614273     -1.668506473144308
O      -0.523408768452662     -2.281820598073904     -0.299813703886370
C       1.029370238859097     -1.705103463175445     -2.071194211776389
H       2.003658669219785     -1.574533553245623     -1.571811287269181
H       0.770148530512819     -1.117822377220657     -2.929431715174759
H       1.067764760734787     -2.732014188520047     -2.322040826118018
22

C       0.065700281359309      1.385329014972817      1.086971003624598
C      -1.001486728710722      0.332747123783061      1.235527597459345
C      -0.315870594993790     -0.804475238628605      1.718317097557852
H      -1.834288820805299      0.704851514977460      1.807234319561726
C       1.012036899794017     -0.751402579440536      1.421930562904451
H      -0.788232736906061     -1.598565988176670      2.209521643801413
C       1.154346572999979      0.536777193685741      0.823084940604657
H       1.773746609981729     -1.506940635093891      1.437570930754081
H       2.202882870843961      0.839586967241012      0.581404664834633
H       0.215506588710579      1.989730951128130      1.981826864942019
H      -0.230100615837499      2.147546301966763      0.338361867677185
C      -0.717813696927000     -0.177113941363409     -1.265973128033288
C      -1.748557769448541      0.110390451234896     -0.285764237869632
H      -2.312624556649126      1.057521135736815     -0.449631609546678
H      -2.480432800521879     -0.673267888212905      0.014860042983713
C      -0.133726562683553     -1.423810377074171     -1.174533104046700
H      -0.208623074707010      0.599071540718681     -1.864869835454822
O      -0.505918170921434     -2.208968058817643     -0.289700495655475
C       1.048683941371285     -1.804093637678591     -2.068095412078321
H       2.012712242394965     -1.559107739993742     -1.542318753064076
H       1.234079668915641     -1.054717463742834     -2.896667079696177
H       0.937931607687220     -2.806585144153997     -2.481498117162158
22

C       0.034450367484071      1.358407110677201      1.155799887040989
C      -1.096481326561232      0.339833903805976      1.272797463735742
C      -0.419584963505135     -0.920851367738943      1.767771479744357
H      -1.923800503669563      0.584135225046114      1.959201485574710
C       0.957187409176982     -0.797821468978414      1.414676909735922
H      -0.941308296949552     -1.754447741466531      2.195873078132144
C       1.209168082424523      0.392002193376480      0.745387234426742
H       1.669986383510081     -1.647758082153065      1.489913971104415
H       2.161970287102516      0.819082778844498      0.431856208561544
H       0.157954416804434      1.542034380679546      2.206577823145401
H      -0.101840487164022      2.264178786105209      0.537312157527577
C      -0.760253984093148     -0.143472711614741     -1.333741001717394
C      -1.659819988623507      0.122629077150237     -0.252088291773228
H      -2.267853383653965      1.049061901805761     -0.489295749924315
H      -2.317925629675809     -0.768637843381646     -0.238528334934122
C      -0.107380525900208     -1.436641690128935     -1.259685508039042
H      -0.560223626870986      0.585201830695083     -2.094909989368754
O      -0.472828612439841     -2.168210630891296     -0.260897852459438
C       1.083278189900855     -1.815447390524446     -2.093084287906047
H       1.851974484406165     -2.011788234691998     -1.272933422320896
H       1.279084220435854     -1.183103575142326     -3.032306486812451
H       0.962638014464389     -2.921701619601059     -2.390718216862069
22

C       0.102995625610164      1.216948430146348      1.249807926947861
C      -1.162017053697787      0.252089578469713      1.293631503961076
C      -0.462794786859926     -0.950714378317821      1.683501636469796
H      -2.095110618643635      0.642970100698590      1.803248482660668
C       0.847360213303788     -0.882506686949563      1.363778942350521
H      -0.923518823336455     -1.874262582089584      2.162674060258905
C       1.148244485204694      0.366932014834420      0.763810755327475
H       1.524781333312475     -1.740401458075846      1.544061833119602
H       2.060130525521711      0.571905977058804      0.257982977179405
H       0.464187734097387      1.607969007254364      2.203739887973374
H      -0.109453922819615      2.127651261287129      0.650372121410607
C      -0.699975518167609     -0.168085914660045     -1.322029138455118
C      -1.677395400125080      0.146339786223866     -0.262414223088575
H      -2.275844802717080      1.053327415557188     -0.436272286303179
H      -2.411006326351719     -0.658848389019618     -0.103448470675732
C      -0.132254609017024     -1.411260203167792     -1.259789974658557
H      -0.775238990146599      0.452494823571290     -2.211313334425093
O      -0.389588592596748     -2.098386937517413     -0.278648852135310
C       1.069365857537034     -1.909793349649203     -2.060028945236523
H       1.994766409810095     -1.963222376281484     -1.449358630877127
H       1.421754037470016     -1.108804712055193     -2.802553124836546
H       0.804022612454844     -2.876043671106182     -2.664603273685473
