22

C      -0.054358877019910      1.818292036192819      0.978000695886790
C      -0.885130400871850      0.756600608199369      1.646415371213540
C      -0.008396110223220     -0.265458063823011      2.008732505439470
H      -1.784426625062059      0.987833627452589      2.204802340157830
C       1.193718366157370     -0.113870754970751      1.298685222592910
H      -0.262245946600830     -1.114433596881321      2.628290239716101
C       1.120422421893490      1.020418721708359      0.528661857645340
H       1.993221352956530     -0.841390399401481      1.280148592263270
H       1.895057938714940      1.397305068361709     -0.125190678932640
H       0.287890694966570      2.516734345025499      1.757598249308760
H      -0.555458155466170      2.403955993682249      0.209272238163790
C      -0.700163294135400     -0.034993348405441     -1.014957068363840
C      -1.714487045356380      0.033886352619679     -0.075679580887860
H      -2.449619693011539      0.827769164010049     -0.151553653547790
H      -2.075477670016270     -0.904102434507051      0.329249252262580
C       0.037995126778830     -1.276911931387211     -1.164452438837120
H      -0.512837261450720      0.773727152348119     -1.710901131945380
O      -0.108000216134870     -2.202618371901111     -0.379100983467770
C       0.980229405324210     -1.405757663678131     -2.335145058936740
H       1.363078896085740     -0.442711049025371     -2.678088653987070
H       0.434233439777440     -1.866991205201431     -3.164376608054930
H       1.804753652694100     -2.067284250418121     -2.070410707689250
22

C      -0.059340860667305      1.832507935490302      0.992163130276609
C      -0.882394664754019      0.746826083734843      1.619096851636499
C       0.002357803834265     -0.261978501027118      2.021205490334953
H      -1.647333798100825      0.944363110893076      2.413299270457641
C       1.247601903554583     -0.114817196818061      1.253358363533105
H      -0.261671715621771     -1.112008715821982      2.677619239501094
C       1.126379217264632      1.083378153913788      0.545563284660344
H       2.123733409854863     -0.794456415010247      1.347447746011146
H       1.809133336574198      1.497318765697860     -0.257846214514056
H       0.411664627090603      2.484892777129748      1.823008295566706
H      -0.557053083185915      2.541475174680634      0.308612248519179
C      -0.693042372558377     -0.056937384043607     -1.038464888850976
C      -1.716632657729123      0.072366752252257     -0.105913438693059
H      -2.412058447689563      0.917845261374175     -0.285227141659071
H      -2.159630219869668     -0.869623016100254      0.249625228460900
C      -0.010833273857952     -1.283611736302629     -1.135399523843966
H      -0.345414259959037      0.753115884477088     -1.714842210917937
O      -0.140446733231404     -2.212740035443568     -0.392567733270630
C       1.013186648713958     -1.402943733557209     -2.300575300406747
H       1.472419991231495     -0.447634230457230     -2.641393404011857
H       0.439162332589980     -1.942101488275980     -3.120794210965098
H       1.844423215894713     -2.092388710845580     -2.067258453365671
22

C      -0.053470702248395      1.852266129107448      1.027171365807525
C      -0.884754240808532      0.738113499458939      1.608604836625900
C       0.050464503422861     -0.266938347958331      2.002756093240759
H      -1.581215836510816      0.940015368757955      2.408998969765492
C       1.277973868330401     -0.106508563048428      1.240600847730445
H      -0.210569440178389     -1.067915754576851      2.684529942155695
C       1.136626591262765      1.139368049732369      0.533630760315666
H       2.168539293136874     -0.703611504379755      1.316584794873902
H       1.730646688075302      1.528549802728379     -0.243471896834607
H       0.362034152086795      2.401832455239195      1.836221823814828
H      -0.521043609426629      2.617883475242210      0.392025687870792
C      -0.692284020501217     -0.051950168722992     -1.053850360583471
C      -1.728147633351384      0.120172536434926     -0.127782747873394
H      -2.359310849447641      0.967129883444560     -0.355473099728041
H      -2.210163545797982     -0.802554957160990      0.217498351875667
C      -0.013978543948606     -1.293592076280330     -1.147241824734251
H      -0.324484121222876      0.747943476179831     -1.682525039077936
O      -0.180723331998744     -2.242405145851887     -0.386195218682158
C       1.033460666132507     -1.414196527342551     -2.270200114749509
H       1.495535267142593     -0.472160449767060     -2.620005245339851
H       0.524718808530743     -1.887854435394751     -3.092544753754347
H       1.832906463097045     -2.114984148954552     -2.002410885375322
22

C      -0.037802207374637      1.859680140719294      1.062148916176664
C      -0.879143036160417      0.726250878998188      1.601933595196430
C       0.118848281093326     -0.266985774623188      1.952283217821484
H      -1.701614207481815      0.981692665339104      2.298258089227427
C       1.276870029949765     -0.059103197690513      1.253402379229322
H      -0.108774095383776     -1.086336918423136      2.662965021482623
C       1.131083515484676      1.165689579169634      0.520904857419332
H       2.198459488510313     -0.693415639028293      1.208493496330561
H       1.858916290149617      1.586896286093849     -0.273690901086835
H       0.313574220556699      2.437505837920309      2.032163076360172
H      -0.479244749225325      2.626629781288847      0.406949705590172
C      -0.699972723785348     -0.039054930120869     -1.056581736220378
C      -1.730666767250507      0.169370250090226     -0.145539348626385
H      -2.373283210671470      1.053700956682071     -0.334228581299963
H      -2.232446904146601     -0.726086071853616      0.235554660482258
C       0.014982815317120     -1.321084862019112     -1.164448382173029
H      -0.384941089885427      0.801703990098145     -1.715310598568676
O      -0.226634731250453     -2.267672685202700     -0.378015950229661
C       1.051192967621486     -1.428243424464894     -2.240176710426603
H       1.499376941905928     -0.488330150130248     -2.573185484838107
H       0.566757501219704     -1.843163366762256     -3.199696237872491
H       1.804307654257182     -2.157480226395601     -1.887480840953999
22

C      -0.020806883748630      1.884300877731468      1.116106396383222
C      -0.860621330848059      0.715677033476680      1.596866937227832
C       0.149604689072966     -0.265193503419561      1.912639271589634
H      -1.799967747391641      0.946715519883805      2.111470641627620
C       1.301756410562656      0.007824628470020      1.242814714979338
H       0.033143449861897     -1.124408302902541      2.545027349182124
C       1.136836951589784      1.173262180501921      0.493191935110947
H       2.119509833417255     -0.664570002195281      1.089873583770426
H       1.871602082922184      1.562799530074125     -0.121984684352999
H       0.233700170835441      2.361177648026700      2.012335164077279
H      -0.476684728510958      2.610254188828692      0.412571810162332
C      -0.700839123863519     -0.029069565363852     -1.057534679655865
C      -1.730481020429859      0.213917072471561     -0.153736799214072
H      -2.337266297261455      1.108341142831412     -0.223694625858813
H      -2.245932723235779     -0.655996097544807      0.267412438350595
C       0.016250842356933     -1.350396984599483     -1.153405029257093
H      -0.464179250088201      0.760718820740273     -1.744940748195989
O      -0.265342850720779     -2.267955631484464     -0.390237642253880
C       1.069103989750343     -1.459539248211878     -2.220172615089135
H       1.544866266903552     -0.463992003111344     -2.469423293011360
H       0.661796744471803     -1.765862696271052     -3.143091526662555
H       1.786766448524296     -2.183757551110660     -1.827257328520642
22

C      -0.012776743985666      1.901858712921006      1.131768067795577
C      -0.829121695099672      0.704446640363675      1.581779986269500
C       0.136211733898267     -0.254971342102671      1.894397883730763
H      -1.832957063796914      0.821942230382066      2.011867395860442
C       1.343309565687937      0.081050932549280      1.200928977980861
H       0.078441267323685     -1.241988893538463      2.400360386904817
C       1.130749229712247      1.179473610822564      0.484816893200917
H       2.126185399034036     -0.706215780697568      1.015754438436270
H       1.995465820746522      1.665127273894419     -0.117466371328460
H       0.288306118723267      2.437151242749507      2.135905011835984
H      -0.550081011950627      2.589964009032741      0.488347817582341
C      -0.689028488643051     -0.033602262925065     -1.052996713504245
C      -1.715813527908597      0.237438619741858     -0.147013376122146
H      -2.293286887383374      1.178890101853626     -0.139465604092643
H      -2.250129172111255     -0.617608170036845      0.266567591479887
C      -0.014756345526532     -1.344694593310664     -1.127551611160335
H      -0.483700641493221      0.711195953585224     -1.864148816551478
O      -0.296947988370113     -2.264927313455665     -0.404232283740159
C       1.095329868983393     -1.479894948817188     -2.185377307822446
H       1.598324600466030     -0.526457876158813     -2.248604609199609
H       0.649209512075052     -1.818647484649497     -3.214918062484021
H       1.835090507186287     -2.251863609759946     -1.860645927135859
22

C      -0.006721520435373      1.924985452535365      1.145841055013586
C      -0.811303355831966      0.699229909944720      1.572558715378613
C       0.129044131262378     -0.258017489148720      1.877510915208755
H      -1.795830129283041      0.705042634431019      2.054620742050778
C       1.379879310721749      0.091536344802035      1.165068196354615
H      -0.010710132284927     -1.267170313620739      2.232925874328513
C       1.151404165397484      1.238242593059227      0.461667725156388
H       2.147956683139167     -0.646039222009925      0.995935412195228
H       1.892855889592251      1.709070127077622     -0.090053230550075
H       0.359534496907508      2.427533629875433      2.013414162148344
H      -0.628057851860618      2.661654008420480      0.585691420969406
C      -0.678924798947874     -0.028879371522137     -1.057955410125861
C      -1.690570182542286      0.250640284500751     -0.131158126852716
H      -2.204080997738964      1.195760984140231     -0.147562010538710
H      -2.225767880941373     -0.629708780874615      0.240737528398769
C      -0.035274689012483     -1.318423310444206     -1.118365024344011
H      -0.498784301603536      0.588134085130930     -1.912588008023868
O      -0.335178912900474     -2.271534724344376     -0.404004917211310
C       1.107298997269590     -1.507619161282242     -2.151198121201095
H       1.715793116339858     -0.536316779328298     -2.131665135106855
H       0.727135972893670     -1.754225444871780     -3.078582868796396
H       1.805186033457651     -2.300797482034724     -1.909312634714936
22

C      -0.023556776039196      1.942878629271425      1.137320009939065
C      -0.812128076948942      0.705748964888995      1.570243888116967
C       0.171496606901292     -0.275401281813348      1.838572841615833
H      -1.724670506359298      0.686006470206476      2.174867677591621
C       1.375466883284627      0.067770204790274      1.144062339658529
H      -0.160352558038186     -1.309158354344887      2.133890155076231
C       1.161210156304483      1.310007907319245      0.455785501154569
H       2.255158089436955     -0.603806269297542      0.982027996208781
H       1.908221491653391      1.869192574487145     -0.240752840781603
H       0.503301591121613      2.462784226146840      2.041500787580907
H      -0.604735247120350      2.709941282706720      0.653129978300221
C      -0.675012765917703     -0.023324814538060     -1.066392310330564
C      -1.650274178352520      0.254217765901689     -0.110282071614523
H      -2.190146764664730      1.220241386329576     -0.225363246745719
H      -2.192541226505643     -0.638842653256279      0.203300081594310
C      -0.040091045267230     -1.323279321574892     -1.116244098902838
H      -0.514745263186915      0.605489878818367     -1.970542273178137
O      -0.373515263033087     -2.266906403492998     -0.399362173577356
C       1.127750215525878     -1.501123857139649     -2.088445385551641
H       1.790244673534935     -0.665610987023786     -2.141910617827022
H       0.722368736185208     -1.646133262419808     -3.198982954717488
H       1.740074260803341     -2.419063502076102     -1.863962917467274
22

C      -0.032205041492054      1.958318318675750      1.141443035776804
C      -0.811887190218833      0.715179082223678      1.566873604839773
C       0.227170052579116     -0.300503167036827      1.779186541373799
H      -1.642432355583014      0.764073499577774      2.301011158215551
C       1.360012999192296      0.053500803489464      1.115557675256243
H      -0.168096427211727     -1.244964654423822      2.085277623682019
C       1.171762125220975      1.369451663013380      0.448249742906349
H       2.269055642467402     -0.510153835815689      0.982154732666614
H       1.793370271801367      1.874328570674124     -0.220015720046473
H       0.480273125877520      2.366627537227536      1.995731977844476
H      -0.572132486793252      2.795559744629514      0.600730468712206
C      -0.670665799830531     -0.019009351093214     -1.083090463217094
C      -1.610088896738432      0.267595224918852     -0.080071416790185
H      -2.229628812911390      1.132171856356424     -0.287871233360215
H      -2.185302508782281     -0.634775415403603      0.186370831000503
C      -0.032598911251735     -1.345825613674133     -1.116023153707029
H      -0.541128262528459      0.684684179984915     -1.890473596172611
O      -0.410245386203579     -2.250017037874287     -0.393704222871714
C       1.143919207790313     -1.512470488556923     -2.052936452245025
H       1.933384053717500     -0.646822998904509     -2.110945083486298
H       0.799448281072112     -1.488927882139150     -3.033711497498567
H       1.559964392151985     -2.471692632873943     -1.824304765542249
22

C      -0.037164127374529      1.968393576931966      1.128943533980974
C      -0.798049286186896      0.723162594405384      1.547012788352401
C       0.240921857580548     -0.313727302108078      1.717051507010557
H      -1.524748115262401      0.877189113053753      2.349386044291204
C       1.362006767718641      0.076412915699496      1.061131146897437
H      -0.041556583398756     -1.313554507870024      2.169853402861980
C       1.154754361407889      1.384927480020472      0.462614966494328
H       2.316664578027584     -0.482470000533571      0.936583031738342
H       1.846419763355633      1.938650253135153     -0.261302476348681
H       0.376518005712944      2.354286113485686      2.133786905530274
H      -0.510542526838391      2.766073727545203      0.597339336737596
C      -0.653502058596767     -0.014343844309059     -1.094034548070845
C      -1.573268196439810      0.276120859066506     -0.033217107119733
H      -2.313164239645926      1.075638132880270     -0.274194047086168
H      -2.161413372472974     -0.615319925585829      0.227857736030662
C      -0.024678214528734     -1.342888616236206     -1.117783094588517
H      -0.486057812873357      0.800968010302350     -1.831710438475545
O      -0.448648627641016     -2.231661413299772     -0.389751021077395
C       1.171183662744660     -1.517296887938022     -2.011854754415383
H       1.907977429075036     -0.785574894940804     -1.886695251329645
H       0.754920098403825     -1.392031993949798     -3.104287211328882
H       1.488189311611481     -2.591552639869340     -1.827744616478813
22

C      -0.016919543498044      1.969461456116559      1.136860890869474
C      -0.776285815085827      0.723669370762669      1.505890184727556
C       0.223563168011707     -0.321408792274163      1.674372183286851
H      -1.472794363000216      0.912607857232327      2.336791909527866
C       1.391030626851677      0.118540909040916      0.994175891260896
H       0.182793403240610     -1.246089494763671      2.213346126075289
C       1.133782929645330      1.386248044301642      0.467641772551369
H       2.305814539961033     -0.436753470235238      0.867094364296442
H       1.827342869260372      1.913502046919544     -0.131813041817653
H       0.207262883026537      2.374801757366105      2.134372233468483
H      -0.560165881229688      2.794883733534279      0.595919828112730
C      -0.639253768885508      0.001637781368762     -1.103297207699376
C      -1.547231455248427      0.276899228547614      0.020118884215399
H      -2.303632074859645      1.033348673652111     -0.178620772672646
H      -2.085792234989418     -0.632505738125194      0.326276784567390
C      -0.029093940117989     -1.319012156396948     -1.114414356919827
H      -0.349202250770987      0.795234304238739     -1.776028718413657
O      -0.484325524996212     -2.212651492538035     -0.387401293990983
C       1.171048996720338     -1.553016975532054     -1.998925732508527
H       2.007667209612142     -0.812134831084574     -1.581209629065350
H       0.862800536820348     -1.366410667640114     -2.983023870092435
H       1.486998266944757     -2.570365179980143     -1.913359520519795
