22

C      -0.054358877019910      1.818292036192819      0.978000695886790
C      -0.885130400871850      0.756600608199369      1.646415371213540
C      -0.008396110223220     -0.265458063823011      2.008732505439470
H      -1.784426625062059      0.987833627452589      2.204802340157830
C       1.193718366157370     -0.113870754970751      1.298685222592910
H      -0.262245946600830     -1.114433596881321      2.628290239716101
C       1.120422421893490      1.020418721708359      0.528661857645340
H       1.993221352956530     -0.841390399401481      1.280148592263270
H       1.895057938714940      1.397305068361709     -0.125190678932640
H       0.287890694966570      2.516734345025499      1.757598249308760
H      -0.555458155466170      2.403955993682249      0.209272238163790
C      -0.700163294135400     -0.034993348405441     -1.014957068363840
C      -1.714487045356380      0.033886352619679     -0.075679580887860
H      -2.449619693011539      0.827769164010049     -0.151553653547790
H      -2.075477670016270     -0.904102434507051      0.329249252262580
C       0.037995126778830     -1.276911931387211     -1.164452438837120
H      -0.512837261450720      0.773727152348119     -1.710901131945380
O      -0.108000216134870     -2.202618371901111     -0.379100983467770
C       0.980229405324210     -1.405757663678131     -2.335145058936740
H       1.363078896085740     -0.442711049025371     -2.678088653987070
H       0.434233439777440     -1.866991205201431     -3.164376608054930
H       1.804753652694100     -2.067284250418121     -2.070410707689250
22

C      -0.020526920481708      1.791342343288225      1.024802340979196
C      -0.688438330126158      0.781262064234525      1.957737042830008
C       0.055947711536565     -0.333819191548470      1.978129291885461
H      -1.593126194883832      0.909265387037716      2.497944039152876
C       1.195340007238525     -0.168355810118660      1.071642885866832
H      -0.152646092204303     -1.199241072737890      2.601044976355158
C       1.101561495254306      1.020152744634281      0.419266433506222
H       1.986470002783503     -0.890461735268875      0.983865557571653
H       1.791197099154230      1.470648987683996     -0.277327958562357
H       0.456686085456360      2.616134502779203      1.652279356185295
H      -0.758958457100474      2.327516461605733      0.310353682524529
C      -0.993646703015895     -0.327509749703140     -1.303340997539801
C      -2.061277533619994     -0.221796648032479     -0.481784491561343
H      -2.645441669807274      0.663371615269432     -0.359074163731492
H      -2.257864589135376     -1.056623199533056      0.160793438164723
C      -0.082635275762385     -1.524742167570695     -1.433700376645573
H      -0.690210943166926      0.438651354062966     -2.016114836776727
O      -0.051613897145514     -2.449886569353823     -0.661937079929570
C       0.745519115936299     -1.517252772217635     -2.686638585788682
H       1.468112934163576     -0.659079810120901     -2.750166983614562
H       0.040906885604279     -1.449474247329917     -3.522095492375309
H       1.400996748631196     -2.391234425762624     -2.724079965662784
22

C       0.027502677687516      1.776406349860722      1.170438556186670
C      -0.311805672972050      0.798098108070561      2.227041129164644
C       0.297091206767245     -0.385557925593439      1.972358225564277
H      -1.001499964445531      1.011418389771550      3.009113455265379
C       1.273327925014352     -0.168807914887635      0.893706223421487
H       0.199225751811612     -1.305205305829462      2.556459981613763
C       1.127675362017373      1.096672012788947      0.416883605480303
H       1.961693977434423     -0.837926614684535      0.520577796151776
H       1.829596326811301      1.588535211015603     -0.239062519764344
H       0.153694731847597      2.822689527468576      1.451876327864446
H      -0.860251941178270      1.830465762588736      0.539744094603577
C      -1.379246928798240     -0.594315707311358     -1.803026814723375
C      -2.456114061649655     -0.757612036559291     -1.013218991802685
H      -3.216829305148012     -0.015878338634807     -1.175413465219780
H      -2.580364535030142     -1.658923379608162     -0.462607843713658
C      -0.294844810161707     -1.657107999151112     -1.702298335375082
H      -1.205982388656035      0.225961522071486     -2.496580191811898
O      -0.317441609602855     -2.541866037699847     -0.881956799899274
C       0.708318143213107     -1.614812960790624     -2.825955870879692
H       1.744827173266974     -1.393455621696921     -2.444291980865906
H       0.480167626390313     -0.935900848391595     -3.643205760160541
H       0.920587675440197     -2.626060594906964     -3.187738396588427
22

C       0.082506897499018      1.759677453421279      1.333301925647779
C      -0.170737600373030      0.666751950367257      2.310002819668907
C       0.591611405915757     -0.400946735618015      1.974102801172554
H      -0.863136515415489      0.750613554284873      3.116760968625172
C       1.397656735227178     -0.101638978139563      0.809409075547623
H       0.574430918346038     -1.418367890148683      2.428958669497688
C       1.094769117489108      1.134555606532241      0.351172608930867
H       2.127335045802801     -0.690563756374189      0.394324919824711
H       1.555820938249412      1.625503267557579     -0.512929099363314
H       0.701559912862855      2.462803216572099      1.870047968579336
H      -0.650924315953647      2.427769794186536      0.958821543457728
C      -1.720162924369243     -0.951855342304377     -2.341401736201370
C      -2.746548033028375     -1.037598225931644     -1.502311752671936
H      -3.481582173929632     -0.238970923023334     -1.533898032469748
H      -2.652495238921567     -1.756136193063274     -0.728593398420868
C      -0.549046525406652     -1.849284321869458     -2.027704446798857
H      -1.555443945402599     -0.344526083499093     -3.219322801332423
O      -0.603208608420305     -2.615429366657931     -1.108372762415929
C       0.732252066952697     -1.719900229844685     -2.744961898420319
H       1.590580630384329     -1.753187464789065     -2.085183209018753
H       0.872443458197584     -0.821785559460057     -3.357161133817594
H       0.925700419429309     -2.561218517762619     -3.430152731961989
22

C       0.147489034958736      1.632663676932017      1.489226005547882
C       0.056415386678601      0.534854714008515      2.435359495363052
C       0.795323232388498     -0.515213057559961      1.955727264321534
H      -0.471026734356500      0.594088502211984      3.398395163585413
C       1.464311705045106     -0.127087986163781      0.755714820565817
H       0.896627994462062     -1.475866733438545      2.512145096381439
C       1.129780948551879      1.152068375569797      0.424856517602159
H       2.125287999211535     -0.743713278371734      0.176624406348945
H       1.454705385320013      1.825184688712751     -0.344734189090358
H       0.397542005057781      2.698534296512554      1.872789807515106
H      -0.830834479962431      1.813407443324923      0.976136957860023
C      -1.909104028074161     -1.329650044446524     -2.784436040706775
C      -3.069939846754177     -1.003159063976888     -2.157323465250318
H      -3.930264768140841     -0.709716626670977     -2.791816431389645
H      -3.191207713369962     -1.266066454718732     -1.126584573982732
C      -0.707564752587679     -1.962305027018154     -2.152970923895640
H      -1.658899009587371     -0.991513392321655     -3.777261405978066
O      -0.762367883512136     -2.805490039103184     -1.271282194234875
C       0.593115684533821     -1.638235662474813     -2.800862606853460
H       1.399072959943863     -1.777526802137481     -2.102116365068884
H       0.754417988236612     -0.634891256149354     -3.208760079037237
H       0.792503299757159     -2.326790380931000     -3.693486896911100
22

C       0.136296879698712      1.557316274996008      1.619338000911292
C       0.179023339878907      0.347649679591239      2.535839221988362
C       1.068886056340868     -0.525780363533133      2.097256294954275
H      -0.379496594686087      0.366140296432942      3.488478242913696
C       1.566344232689653     -0.090887516725208      0.814881350843205
H       1.405168842549264     -1.372898990376843      2.689261336007250
C       1.117853194691366      1.119010593880401      0.489103451995993
H       2.430198078528157     -0.520045739418967      0.231041536879308
H       1.263976746289393      1.764788160141591     -0.347451950276076
H       0.531653897242760      2.531409945294399      2.077442269879508
H      -0.845924106194132      1.843644299957889      1.204619920314347
C      -1.977485314838602     -1.386441001816659     -3.256366533673404
C      -3.189223612110438     -1.474812077903247     -2.723740854688307
H      -4.102411427533903     -0.902421405803153     -3.085887417488670
H      -3.384285271516873     -1.971269727401583     -1.797033590051260
C      -0.868412826431802     -2.043439297348931     -2.407222675785540
H      -1.784643386166325     -0.914240952532619     -4.190158378105980
O      -1.109756751780598     -2.622951915819790     -1.344984640091683
C       0.464356406894373     -1.839710117410154     -3.035311062796455
H       1.299817507794911     -2.131451986332666     -2.421473192974545
H       0.491192128858263     -0.765403436263297     -3.392693617763035
H       0.461911922646315     -2.455823930964837     -3.980860458696113
22

C       0.116412538498672      1.380823298611989      1.846939102493471
C       0.499972934086868      0.301358363253472      2.759319514988961
C       1.489185951147422     -0.459385041970775      2.185355613110179
H      -0.016819269714269      0.193122156615268      3.758072855341165
C       1.763668617340834      0.037461741163240      0.877284841753771
H       1.988087034896461     -1.304419680359068      2.589589822953537
C       1.048338628054367      1.197327328322752      0.673085284213652
H       2.377648600048421     -0.378293267624852      0.012523709873671
H       1.102276694465132      1.851560825363461     -0.166059838127032
H       0.288836705405969      2.359919570982884      2.227638983660285
H      -0.975958385190353      1.338352712414538      1.569074718714359
C      -2.164967290696456     -1.569979104556290     -3.656239387100343
C      -3.482724171770985     -1.782236673682810     -3.407057755839855
H      -4.406827107528310     -1.550044601107752     -4.011830491305057
H      -3.751964551945434     -2.418245199923077     -2.550935232498011
C      -1.134852738367865     -2.080061333808668     -2.713344067404178
H      -1.879962902423698     -1.107663583072928     -4.593055063779561
O      -1.366288822489594     -2.446532350152943     -1.564593149661949
C       0.320630961864600     -2.196261449324856     -3.157879950109598
H       0.848411332867006     -2.358260856837522     -2.244056635928267
H       0.641944247563194     -1.333938284012363     -3.750140336042279
H       0.456631525234387     -3.117414492508828     -3.686491087365149
22

C       0.176784898725622      1.247809843199168      2.066247652744583
C       0.751255282961927      0.203771092275116      2.962320212236440
C       1.784669426447718     -0.396199106451264      2.321239130224200
H       0.296201831013916     -0.142559697740247      3.946121766236891
C       1.927659892484455      0.179321261539457      0.996914581092135
H       2.317612354088796     -1.226425094322988      2.634871458607992
C       1.104369819921572      1.229362849208406      0.802591272243604
H       2.783532102873848     -0.159980729655438      0.295843535581571
H       1.040996527828896      2.010398363797654      0.082248923537758
H       0.183044101962254      2.287907831083025      2.501842536558914
H      -0.858378061316752      1.016002243202559      1.718915135497305
C      -2.281304323772849     -2.046768795475244     -4.116506502742338
C      -3.597867973010243     -1.852410974443963     -3.960859917703098
H      -4.308289532173315     -1.913581369256754     -4.811255634313977
H      -4.087963401038697     -1.494135257506509     -3.073608530302582
C      -1.372854088764719     -2.232784145076390     -2.958071930848861
H      -1.846300716373291     -2.019099892120646     -5.116088639697940
O      -1.748084536278567     -2.397128854994614     -1.832174245765925
C       0.061320638932314     -2.300630835596594     -3.283161719676441
H       0.701874833909906     -2.105382514055441     -2.406692328643819
H       0.276706638675417     -1.457278526409507     -3.967930524704912
H       0.252801119040852     -3.301301615237578     -3.703693724942409
22

C       0.251465690978423      1.123107664237971      2.214806296088716
C       0.932078303482904      0.121793803946964      3.081919483149239
C       2.032892114802457     -0.344344267611674      2.490593904856840
H       0.516287696171325     -0.310438153726204      4.044151030656733
C       2.190848987170453      0.415843942743387      1.230989352971075
H       2.749640686220556     -0.983982219705474      2.866152827007361
C       1.122145586122461      1.197197541459830      0.971859759550773
H       3.057172956521518      0.396422161265783      0.510428011157586
H       0.944240560746209      1.932918866774856      0.204897408064192
H       0.249950001993575      2.170389850118531      2.667702713744932
H      -0.781484880822680      0.873991616453759      1.972130563886520
C      -2.363862960282621     -2.305610565240034     -4.492713665658476
C      -3.651538040539626     -1.945343906379166     -4.348404884467670
H      -4.389328643139070     -1.758907541734432     -5.126241293407823
H      -4.077012084735554     -2.084272231192791     -3.344458532207630
C      -1.640866664575978     -2.486074701328737     -3.260605817129087
H      -1.781985801819576     -2.445451270027784     -5.417947626602902
O      -2.160824720309209     -2.209152355117394     -2.188300235592416
C      -0.164344612088454     -2.592453260650095     -3.480898179783841
H       0.370409193281465     -2.352708531284334     -2.499586081406177
H       0.149481654314063     -1.762498337305173     -4.116619393710906
H       0.136198162737334     -3.593221232980012     -3.932885381831144
22

C       0.332566602221325      0.999524645699355      2.438820686789430
C       1.162475511772891      0.134917956633357      3.280200631536689
C       2.352448837372384     -0.168105509125889      2.688329649677013
H       0.925798382054069     -0.250833459455313      4.313804025961780
C       2.451166049492624      0.643957724255431      1.515610934471955
H       3.043847278384432     -0.915109652038846      2.916141676887317
C       1.301885691393630      1.301754159763025      1.331355990846086
H       3.272120112218578      0.694831996924649      0.775881628385256
H       1.100004217191376      1.918263759747934      0.474706885273664
H       0.017874705246870      1.851007386215128      3.006933135268891
H      -0.550326201426053      0.487636644275861      2.051947459087916
C      -2.679138310366723     -2.408852917029479     -4.862534362059842
C      -3.979679161883816     -2.168042971860133     -5.059028900548229
H      -4.178411102853150     -2.216974386516674     -6.113330708409052
H      -4.753817909538370     -1.773460207145873     -4.391206861895037
C      -1.874978714001614     -2.550555335501817     -3.557739587312499
H      -2.027245431151671     -2.593850030034832     -5.759867062797318
O      -2.305864812619517     -2.282907115438356     -2.434979970046215
C      -0.439650988781835     -2.972357042593479     -3.714386702300942
H       0.001155427283040     -3.075706367984519     -2.692913800549033
H      -0.023011832199550     -2.244139232145171     -4.346823823817437
H      -0.316955942624122     -3.878222039706064     -4.305595043904515
22

C       0.502718420630778      0.897603425643249      2.617035203715381
C       1.396103707756786      0.016067192625126      3.457399994986718
C       2.660920204025601     -0.012872708409011      3.019141326646259
H       1.104187190020602     -0.462236318002774      4.416372331832490
C       2.764099846041909      0.925166835281030      1.810491813409342
H       3.512667080783400     -0.424566528241267      3.460570268928717
C       1.497095659573458      1.377768773046713      1.561990338429245
H       3.636380368894530      1.068728023766045      1.189825344760942
H       1.086399480425006      1.889809443877442      0.690069058267178
H       0.026553968311065      1.758077214414960      3.145564906508892
H      -0.377227064709283      0.350848624372375      2.178319179843303
C      -2.849020433056992     -2.534050755669309     -5.263410495703019
C      -4.183380937049924     -2.373998738516841     -5.261814719881486
H      -4.863275048976430     -2.707036752266114     -6.036918405748689
H      -4.655611251423342     -2.073668699170764     -4.285779629680029
C      -2.114628523612825     -2.627031406104373     -3.964911399691089
H      -2.255543027723387     -2.866164747908278     -6.151944633356182
O      -2.740548842250349     -2.288002582650184     -2.957565519065231
C      -0.719411405669186     -3.277918041606982     -4.017196165987662
H      -0.417594512976047     -3.479101524696805     -2.960619504394864
H      -0.031598261972414     -2.702488470079109     -4.670173829156282
H      -0.823203879639915     -4.209591150360803     -4.543008638550402
