22

C      -0.054358877019910      1.818292036192819      0.978000695886790
C      -0.885130400871850      0.756600608199369      1.646415371213540
C      -0.008396110223220     -0.265458063823011      2.008732505439470
H      -1.784426625062059      0.987833627452589      2.204802340157830
C       1.193718366157370     -0.113870754970751      1.298685222592910
H      -0.262245946600830     -1.114433596881321      2.628290239716101
C       1.120422421893490      1.020418721708359      0.528661857645340
H       1.993221352956530     -0.841390399401481      1.280148592263270
H       1.895057938714940      1.397305068361709     -0.125190678932640
H       0.287890694966570      2.516734345025499      1.757598249308760
H      -0.555458155466170      2.403955993682249      0.209272238163790
C      -0.700163294135400     -0.034993348405441     -1.014957068363840
C      -1.714487045356380      0.033886352619679     -0.075679580887860
H      -2.449619693011539      0.827769164010049     -0.151553653547790
H      -2.075477670016270     -0.904102434507051      0.329249252262580
C       0.037995126778830     -1.276911931387211     -1.164452438837120
H      -0.512837261450720      0.773727152348119     -1.710901131945380
O      -0.108000216134870     -2.202618371901111     -0.379100983467770
C       0.980229405324210     -1.405757663678131     -2.335145058936740
H       1.363078896085740     -0.442711049025371     -2.678088653987070
H       0.434233439777440     -1.866991205201431     -3.164376608054930
H       1.804753652694100     -2.067284250418121     -2.070410707689250
22

C       0.014264647042320      1.780134147174181      0.858919178508679
C      -0.862727243006134      0.770179529222134      1.647005408464746
C       0.001971308491320     -0.250935236810139      2.005640379442461
H      -1.842177023322330      0.982615775819928      2.124411235483752
C       1.254663685685688     -0.167658130030509      1.297560492277366
H      -0.211653904374931     -1.021785378792208      2.812086913361309
C       1.234539460444468      0.956911276102793      0.557816851087890
H       1.961576916809635     -1.054791422626686      1.121099749836239
H       2.022453016897884      1.313051546220013     -0.146887986655632
H       0.314285741165034      2.579186258551834      1.512345046745240
H      -0.388320156934432      2.297366249036245     -0.041225002369514
C      -0.777367305487962      0.017268979555159     -1.132283220774701
C      -1.791444468360397     -0.011535719428249     -0.219675732843467
H      -2.506104492612938      0.763772666223098     -0.261273802076309
H      -2.007659578329005     -0.955323652689139      0.347663588098318
C       0.086569508719435     -1.228560786500063     -1.182312548771301
H      -0.746070816957338      0.829864562302070     -1.868945588852949
O      -0.120573545515176     -2.144994403552114     -0.401435136696496
C       0.942526407966434     -1.427648137281272     -2.410994953811843
H       1.209671192770778     -0.461170979003214     -2.796518978358577
H       0.341591439052502     -1.903357600170535     -3.202227140051359
H       1.872992746646618     -2.051071354664053     -2.238249493642036
22

C       0.086109854198884      1.727414445999094      0.810034037945352
C      -0.718715799122770      0.851813178989064      1.646613462152962
C       0.010577274192516     -0.215468700116103      2.065051953225201
H      -1.638713001864999      1.211418733921869      2.136523361456515
C       1.221671563618355     -0.234524010840015      1.288162401205459
H      -0.387337136755968     -1.062622453368895      2.683205414939942
C       1.319019965044318      0.928205704784754      0.547469772468572
H       2.055888276795476     -1.014611895599245      1.480545017106512
H       2.172445589630915      1.186558572749377     -0.125856363209554
H       0.362963956872149      2.566021897481942      1.423049866789196
H      -0.482693431369234      2.135964978272100     -0.048445933136275
C      -0.824704294191143     -0.041408229557492     -1.252360879242850
C      -1.887089674704562     -0.052372268207966     -0.419316849566502
H      -2.665523848425492      0.699592008895149     -0.240367615080320
H      -2.081924045898020     -1.053018603581835      0.055767104876036
C       0.000732760686931     -1.216519062484480     -1.285641602781785
H      -0.456629624545072      0.789667599986101     -1.870077076752833
O      -0.082275313244715     -2.074558765468574     -0.431876618531092
C       0.934375213957475     -1.398270840693334     -2.475975685643478
H       1.287285533929901     -0.568381651556026     -3.071828173182827
H       0.241600906276581     -2.005720807922768     -3.092863857835279
H       1.754683223729581     -2.140761283740579     -2.230785248464041
22

C       0.215549233225381      1.765125652503798      0.791858422162955
C      -0.632548347330858      0.962882769245041      1.784100683043737
C      -0.031380034673394     -0.219259101058665      2.025803553505064
H      -1.627537834555231      1.274689947295714      2.072324742541586
C       1.271911988521190     -0.238324529149978      1.338113449940210
H      -0.341572044083185     -0.969921533019757      2.724164375302745
C       1.364907912418708      0.806300366870299      0.519009852667135
H       1.997085159280255     -1.054538282777917      1.380271497902509
H       2.187594773283881      1.106727996473089     -0.090715337392793
H       0.542005281878074      2.712007475901670      1.249196201020335
H      -0.297621290096117      2.085577650830579     -0.124450540440953
C      -0.900430383125412     -0.048396540053684     -1.400999579274241
C      -1.991820721800986     -0.118595941123032     -0.615076722398526
H      -2.592078590279775      0.856659806640614     -0.517225446477523
H      -2.194997750758211     -1.015068663045760     -0.032950956899736
C       0.000644507955034     -1.254083624096050     -1.399263360915256
H      -0.632923026292258      0.906778121214689     -1.870365631944139
O      -0.056039920697908     -2.031619627299794     -0.462941868923986
C       0.883751560572337     -1.466047646435334     -2.561979967574051
H       1.235288483163698     -0.460847882754494     -2.906295665205719
H       0.462838368943593     -2.031247290358690     -3.404317067393988
H       1.740346947531451     -1.974671337019760     -2.116341457588540
22

C       0.316604533149701      1.778907412977485      0.841339448873466
C      -0.537738862269110      1.067521901034427      1.831314603413241
C      -0.000846781541015     -0.169308998049582      2.035886816664577
H      -1.448674943560302      1.383762292229748      2.328076876771162
C       1.274904138823568     -0.305035901204032      1.361848060447543
H      -0.452879317112678     -0.941505335640696      2.589928743412723
C       1.397026852562581      0.776877203229801      0.534002745793559
H       1.856751323050774     -1.161873781401428      1.429399952568077
H       2.123038828104306      0.814473782103072     -0.239540198068513
H       0.857553545112993      2.733545172420938      1.072924595642976
H      -0.324600734224911      1.988208949831592     -0.027824209955977
C      -0.978261022635130     -0.090026878792458     -1.527002341655371
C      -2.090233999277945     -0.110177281403241     -0.803964545714979
H      -2.880528049625489      0.682914429899881     -0.786004294894807
H      -2.364541515374320     -0.945359372722185     -0.187906831963075
C      -0.059770098828985     -1.283320797018424     -1.482460601740062
H      -0.840041615268322      0.635289097092786     -2.337183412125706
O      -0.014723516395564     -2.001859660352413     -0.509170007400273
C       0.938938032507569     -1.498396678859429     -2.653560195416226
H       1.209926938646809     -0.452952713455217     -3.050687411682961
H       0.497029594838570     -2.005174341376594     -3.525331062381107
H       1.825572376213758     -2.024725508728992     -2.399876528190531
22

C       0.416474082386277      1.769903056670720      0.853650618400231
C      -0.415754369007706      1.125902722753318      1.903816498260637
C       0.009914489138417     -0.125847810906538      2.122683970984083
H      -1.265641859421438      1.644506592197365      2.352726187499202
C       1.195285316208810     -0.355372226431475      1.311623980128290
H      -0.463428962820916     -0.862397188423975      2.801012148828109
C       1.434159520579063      0.731551312476854      0.541614815228598
H       1.803491592723391     -1.246132349622282      1.324421869722480
H       2.205509562288525      0.907143450445963     -0.242599362809259
H       0.638240006622140      2.786601515938439      1.322998540641271
H      -0.167397182753613      1.988931040170516     -0.071101692945614
C      -1.061332568543210     -0.224578258060913     -1.727579972841426
C      -2.201527122110429     -0.077231777248970     -0.987471528105535
H      -2.895827108771501      0.689958956258046     -1.175584749898261
H      -2.338577933011410     -0.842247175441864     -0.211991286997264
C      -0.006479116517778     -1.276060110733716     -1.558353709747326
H      -0.820972530271441      0.420451027452985     -2.579314001290695
O       0.018262608239818     -1.982345913959024     -0.567024465746681
C       0.944436950833049     -1.469101616224976     -2.731516700725246
H       1.349370034995305     -0.573938287745205     -3.262192636055025
H       0.284220135971353     -2.032474228342692     -3.422479377211507
H       1.706841879875225     -2.153290230599715     -2.400499184128867
22

C       0.479624913922819      1.787669344517300      0.879207065255371
C      -0.344731216848871      1.181420893696202      1.979586346129370
C       0.050459837120050     -0.097427721543794      2.213651492689935
H      -1.142300726292901      1.710224360601299      2.515235682565793
C       1.156396673442771     -0.390394147701173      1.262227027261723
H      -0.268920898187229     -0.748591467826991      3.094946225927776
C       1.475651235288991      0.706313373712327      0.571586290743412
H       1.671256497167022     -1.410792200232609      1.173570892306281
H       2.367020868714655      0.757325076742624     -0.119109570173303
H       1.112827811331777      2.707449974551312      1.082538436593387
H      -0.163626494565745      2.064148474580995     -0.003033094304371
C      -1.149187479641968     -0.333198204629438     -1.948581111002956
C      -2.212365895763440     -0.109761320967300     -1.186161450197699
H      -2.853776935750709      0.671882126576310     -1.502853019506569
H      -2.478769054078968     -0.509701174336421     -0.192658379943677
C      -0.012308308368271     -1.209883483208869     -1.612805626760908
H      -1.052353558453704      0.400990482695002     -2.756587525376271
O       0.046373262778946     -1.982468920433651     -0.672182003722100
C       0.885662200309234     -1.494093963056434     -2.767095207597515
H       1.288011222378217     -0.585450867990595     -3.163273436702897
H       0.312573142432573     -1.951087676651680     -3.589162016888204
H       1.756257037979994     -2.163250490064604     -2.498050022165009
22

C       0.594841704089344      1.801798945938121      0.922436810150032
C      -0.227765358717772      1.266436288823383      2.081997950464892
C       0.162522276730206     -0.019373902817270      2.242819451070703
H      -0.983771551403642      1.760228518376949      2.712613888104199
C       1.134982263470833     -0.436163298838449      1.309679155465570
H      -0.269534397871131     -0.736801907980052      2.939770201208528
C       1.465108323398351      0.640548841634115      0.559978478750845
H       1.642593325431426     -1.429438376962110      1.346890057266738
H       2.210012626629976      0.747892361140132     -0.229967098941003
H       1.104494978049662      2.731482600613591      1.234559192832959
H      -0.091410855242911      2.077902255574342      0.066204571039637
C      -1.216579795516480     -0.334602893635491     -2.117872923519116
C      -2.271324682331315     -0.115898304600136     -1.344865976103663
H      -3.181809373192273      0.456546619885170     -1.710727391904968
H      -2.230137588906716     -0.609696900718154     -0.373706727207469
C      -0.096356387878839     -1.331452364855202     -1.769206855455541
H      -1.107506765453861     -0.146494081469455     -3.205596645574424
O       0.019336805046623     -1.944842785890820     -0.718549800903680
C       0.916936389314608     -1.460690599269571     -2.865007127361449
H       1.299729747068878     -0.518368371592214     -3.216882424091784
H       0.363943365371089     -1.916456789976569     -3.715552154783075
H       1.724568374843555     -2.174464511119970     -2.549359179890869
22

C       0.673284950809387      1.832863628692984      1.011256909178670
C      -0.049281926280930      1.324881654941254      2.179986743502933
C       0.149196473078205     -0.007016091332469      2.333251839023307
H      -0.749183258205250      1.997571223252521      2.669429911925115
C       1.247846856228973     -0.400607818104978      1.383955266008914
H      -0.341089989651985     -0.659269114283972      3.008241974804057
C       1.436784143299075      0.596104758389178      0.494327317280222
H       1.585922795969264     -1.392880922462518      1.318525784129156
H       2.019556010514029      0.478011134119347     -0.368608549940113
H       1.291894452785709      2.707472148387002      1.199049180455625
H      -0.006247771867300      2.121977222988434      0.164313052911706
C      -1.259394121547772     -0.460335695645987     -2.337447395529960
C      -2.289660714326231     -0.183814603835451     -1.493696010082398
H      -3.305230356263275      0.313616436832424     -1.750242217498359
H      -2.183828577928197     -0.434437113809601     -0.429947270632082
C      -0.171405824262053     -1.374315500332400     -1.903083647740427
H      -1.328224523798793     -0.062568023153254     -3.366685277565817
O      -0.091093359796332     -1.881000032818376     -0.802473059741500
C       0.942338748864267     -1.476925567083007     -2.969585165613107
H       1.393335973586708     -0.462248959143091     -3.147481847436429
H       0.590388341651983     -1.831678285766899     -3.963761833150355
H       1.763743541983315     -2.110051728807873     -2.646261779691131
22

C       0.803378726775952      1.818071686841855      0.980392145292132
C       0.078632376807420      1.369513252433446      2.265296358130926
C       0.214961087548344      0.033599022202928      2.418186301877137
H      -0.564796696926170      1.960257561168758      2.906948707686669
C       1.233294381532405     -0.367342739247760      1.462123843587638
H      -0.130123962654636     -0.567871516061671      3.256387094658353
C       1.422283257086532      0.579749081260720      0.514490245177805
H       1.691088103793489     -1.322542886727444      1.363634001001700
H       1.952466217945134      0.467740806946131     -0.430420074863846
H       1.565038080363077      2.574771233382190      1.116234795621617
H       0.006123632730497      2.257087689805179      0.405388369928523
C      -1.382210399519331     -0.595748615197290     -2.519458188595924
C      -2.272354462343925     -0.262887293822749     -1.606195742094016
H      -3.145373838011965      0.230850766568271     -2.017076568147907
H      -2.138083771935455     -0.427905341768742     -0.505421979424136
C      -0.177838762993649     -1.337490192597101     -2.071345809323064
H      -1.246557263211866     -0.106411696782317     -3.465195428026326
O      -0.246580986813979     -1.814700202474035     -0.960497108223545
C       0.972973925433606     -1.513089367177928     -3.016730224094887
H       1.418985891072102     -0.456966349259656     -3.087705457332852
H       0.613941127503861     -1.716044606214015     -4.037635840715938
H       1.684384877357176     -2.226387693915312     -2.678208128639569
22

C       0.798104045608970      1.842148750757053      1.043326118098164
C       0.171159775491446      1.454885808809870      2.318146582429373
C       0.432893508744053      0.150669823667702      2.537677125181682
H      -0.356168501105278      2.183225352507145      2.964495269597946
C       1.194396219753226     -0.459487075694567      1.438767915281317
H      -0.029812609671816     -0.437351550419984      3.392836671727674
C       1.439558801562204      0.540849621597792      0.561499907614910
H       1.545181896415141     -1.528778066529906      1.547563806590614
H       2.127862071642766      0.486968478669681     -0.360724172032823
H       1.569510407408304      2.596675882097235      1.282498276401380
H       0.267044919267832      2.256097138442384      0.224056734185105
C      -1.409195929223138     -0.636657041587487     -2.720020633264417
C      -2.329305194900187     -0.291151700325087     -1.776084607801731
H      -3.198285138367352      0.282362856106691     -1.839909534111932
H      -2.111313816290352     -0.669276926994317     -0.745645910815932
C      -0.240701942438058     -1.366435840845764     -2.221461996058511
H      -1.705428345925694     -0.545812568009474     -3.768268016250772
O      -0.312630469658040     -1.790619414627322     -1.078402297631307
C       0.981915252513836     -1.512384193509143     -3.062873439932892
H       1.665893611882045     -0.612268142112928     -3.122912707572067
H       0.668346241699815     -1.804456043580554     -4.058310291296139
H       1.553780506622320     -2.334358340126199     -2.636573725139914
