22

C      -0.054358877019910      1.818292036192819      0.978000695886790
C      -0.885130400871850      0.756600608199369      1.646415371213540
C      -0.008396110223220     -0.265458063823011      2.008732505439470
H      -1.784426625062059      0.987833627452589      2.204802340157830
C       1.193718366157370     -0.113870754970751      1.298685222592910
H      -0.262245946600830     -1.114433596881321      2.628290239716101
C       1.120422421893490      1.020418721708359      0.528661857645340
H       1.993221352956530     -0.841390399401481      1.280148592263270
H       1.895057938714940      1.397305068361709     -0.125190678932640
H       0.287890694966570      2.516734345025499      1.757598249308760
H      -0.555458155466170      2.403955993682249      0.209272238163790
C      -0.700163294135400     -0.034993348405441     -1.014957068363840
C      -1.714487045356380      0.033886352619679     -0.075679580887860
H      -2.449619693011539      0.827769164010049     -0.151553653547790
H      -2.075477670016270     -0.904102434507051      0.329249252262580
C       0.037995126778830     -1.276911931387211     -1.164452438837120
H      -0.512837261450720      0.773727152348119     -1.710901131945380
O      -0.108000216134870     -2.202618371901111     -0.379100983467770
C       0.980229405324210     -1.405757663678131     -2.335145058936740
H       1.363078896085740     -0.442711049025371     -2.678088653987070
H       0.434233439777440     -1.866991205201431     -3.164376608054930
H       1.804753652694100     -2.067284250418121     -2.070410707689250
22

C      -0.187436905545978      1.847615616513082      1.037517207633281
C      -0.966222579011067      0.587462100606069      1.597802613739436
C       0.319370455172669     -0.193176798685558      2.080963113258318
H      -1.651210376535631      0.912201676644456      2.362628954563982
C       1.294728379707418      0.024902308572549      1.234320146294672
H       0.270083117827501     -0.952583503227546      2.848093380266563
C       0.704440841435470      0.914894824780203      0.070785372515619
H       2.222432325467706     -0.505272511617050      1.166420106390163
H       1.365592803176815      1.503501208949832     -0.563853090351603
H       0.419549819640852      2.387402992455616      1.833361275568270
H      -0.815060995659955      2.505591669262540      0.545860380745202
C      -0.293375587452102      0.119335472904255     -0.589787086563535
C      -1.502115646216327      0.081814045640004      0.451395639919370
H      -2.292362391090141      0.688770444914027      0.057245573222927
H      -1.823988663081423     -0.944108524672912      0.580787438682138
C       0.063630162970030     -1.339436625619038     -1.052466162711823
H      -0.690691260908637      0.677779894135421     -1.494346401348609
O      -0.326274485456066     -2.335914911671003     -0.420016128319914
C       0.962483558645342     -1.551750768756202     -2.244670078589587
H       1.631031406286826     -0.714474250493029     -2.457120326592458
H       0.402006869197599     -1.740414215674233     -3.135410863098854
H       1.595863523004553     -2.409250173710710     -2.031724475662336
22

C      -0.112657208739456      1.830945797047746      0.906761352596008
C      -0.752901660003596      0.740420754248016      1.816289367838713
C       0.441124019151310     -0.026842599908701      2.114525588589288
H      -1.304113291415068      1.085935587768852      2.718561468600815
C       1.332760783766509      0.088491267512966      1.084047790364076
H       0.654189859779120     -0.409686164623917      3.101718855943174
C       0.673132815465585      0.872870711745287      0.025850997928197
H       2.405885497648519     -0.202898136021223      1.033650025547075
H       1.288955426656872      1.437958880424496     -0.704890478218438
H       0.592082587497547      2.524001383514532      1.409591608765316
H      -0.903877556445360      2.540953448646693      0.415737953871366
C      -0.463631307791829     -0.095821016099109     -0.488211743817696
C      -1.475318302190928     -0.074480934995711      0.639249882423404
H      -2.315465114516573      0.507513517948287      0.233647803725267
H      -1.826144669251414     -1.178673106863558      0.864363572795869
C      -0.067006870747996     -1.424893531555607     -0.986941979088789
H      -0.893291537747306      0.429483863554093     -1.334384102764880
O      -0.469087187524335     -2.421734938619488     -0.428171756793040
C       1.062320814634534     -1.556323247554468     -1.956139708635640
H       1.932298551229275     -1.023426342876226     -1.557371976136592
H       0.920756915994360     -1.181030415026154     -3.018330335062856
H       1.326536721038074     -2.666041248671341     -1.873258916307440
22

C      -0.140161946387639      1.913906382957241      0.780198074627462
C      -0.649086066958617      0.900720046055100      1.828391454995104
C       0.614226154711679      0.080161951370848      2.120936079573664
H      -1.228780284269807      1.303444413587101      2.679320774594282
C       1.325989290817150      0.059749482728255      0.999044580013295
H       0.984440661058278     -0.439589910290770      3.003055147660089
C       0.616732915502257      0.828204906938212     -0.064133846338203
H       2.417977858506408     -0.323740563594046      0.789545688752215
H       1.149184937140849      1.294852573842056     -0.933821487476767
H       0.534308749235742      2.706957309860983      1.153105089911692
H      -0.978904493805113      2.549969340678185      0.293875416466202
C      -0.495277166891975     -0.195849073964269     -0.366204520950993
C      -1.398251974755985     -0.146503054370362      0.898498014857181
H      -2.435105938924412      0.112894429348514      0.652217052013615
H      -1.494629659965316     -1.156582901332714      1.418368872359919
C      -0.059134384192023     -1.572087273123435     -0.831758531461003
H      -1.083394573613210      0.259972782341934     -1.202069448912327
O      -0.630125201194951     -2.540283469490425     -0.482561907438814
C       1.144419132466741     -1.543978383128489     -1.620706432010831
H       1.849657135343684     -1.661195619569815     -0.813918273902493
H       1.304195363500023     -0.569066555751197     -2.027698921483591
H       1.302158050192082     -2.289523061429832     -2.420462197784846
22

C      -0.194887969468341      1.902889406146256      0.766314334239222
C      -0.611619485273568      0.830249901294870      1.800041765382556
C       0.736008459507020      0.246981151932642      2.151742349599565
H      -1.187107923878749      1.137405398892898      2.680116738887813
C       1.475076145118238      0.202236717918574      1.014542758262503
H       0.999882746344434     -0.274822399893308      3.054389690793234
C       0.603034975699032      0.837681562168533     -0.043172448221719
H       2.470587575850703     -0.291344289082489      0.684463704349460
H       0.952545065242728      1.286252211368877     -0.957801583644600
H       0.425486804567836      2.697490749268298      1.133050801849971
H      -1.001405854007364      2.261950092359446      0.134682624677297
C      -0.518612022440204     -0.184682186080415     -0.329117219840219
C      -1.416233567136592     -0.075950167667515      0.924491004278181
H      -2.353230748317066      0.475702765580968      0.707399000979008
H      -1.695601499353045     -1.000831286506719      1.360933006979818
C      -0.100768713025332     -1.640531994377156     -0.686803046921530
H      -1.142863642122091      0.249015300741044     -1.153867327443141
O      -0.639885111170603     -2.606112307092796     -0.261686265005641
C       1.155026104471871     -1.791205321771153     -1.561123961678931
H       1.710757163451054     -2.646602434741257     -1.067732783292992
H       1.857648752218244     -0.976425137241095     -1.732420174116340
H       0.988528360179234     -2.212504322619833     -2.568007931714221
22

C      -0.181821711433012      1.873218586867411      0.765598425790954
C      -0.658226622446201      0.879507209475714      1.834102075903267
C       0.621274564912524      0.218598365332241      2.139456717247384
H      -1.129356970560482      1.295618722018522      2.746778071256267
C       1.500525164251325      0.210107535419620      1.127644659070821
H       0.857787471957007     -0.349097709336531      3.020260174635607
C       0.790752003835509      0.853281891517278     -0.018848860202372
H       2.355481656966763     -0.452323019066327      1.013010038210556
H       1.329730865800619      1.278008988501445     -0.847709134932096
H       0.357538625637866      2.659401794748348      1.289405906103679
H      -0.954352493577978      2.252159405944107      0.171415280800580
C      -0.485878723763212     -0.209138420964469     -0.420024239305454
C      -1.507827146859247     -0.122878990286099      0.789923126813602
H      -2.400988566606887      0.462485402017600      0.460439090609031
H      -1.780409512131868     -1.049790508911410      1.219352974594109
C       0.000081601121173     -1.634776174390126     -0.565287982829069
H      -1.047194090772392     -0.011848379665426     -1.344346603645607
O      -0.456732241975065     -2.498235133861105      0.161529983237182
C       0.979499439951692     -1.971292408278977     -1.629808177172607
H       1.464259082009039     -2.971189521038438     -1.505360614914061
H       1.728514487195034     -1.168117788712433     -1.819351288127887
H       0.511530790535974     -2.093493911928331     -2.625321444661669
22

C      -0.077986156476334      1.872220088402469      0.697426282435228
C      -0.777253608971540      0.943067129135800      1.668614338270974
C       0.462565699175187      0.229263811714806      2.258318414752007
H      -1.452151361945163      1.392763238630956      2.419053791408424
C       1.369095995705049      0.100283695454034      1.226362988312024
H       0.437366518171358     -0.488515918165407      3.074356321585965
C       0.720995032572198      0.767122389128104      0.054779479766837
H       2.195334299564144     -0.505560298432645      1.136604602837139
H       1.272649163301268      1.097150068836708     -0.812611733464859
H       0.572701539633958      2.594983882867295      1.203540261185655
H      -0.790785646776353      2.572328610232540      0.113736463906653
C      -0.476962892294812     -0.196247540036255     -0.340095997255087
C      -1.523750284547258     -0.023431406466581      0.751731184736912
H      -2.535177264785994      0.412467059172773      0.498323803357698
H      -1.647896030228176     -0.910562731372757      1.389717189296929
C       0.085947121299460     -1.686871611183796     -0.433798527659436
H      -0.792020233620882      0.136613014575215     -1.321286106505681
O      -0.027862394509184     -2.562565024249193      0.471129207255453
C       0.880331966273564     -1.986651376274302     -1.768402164613471
H       1.084353550104921     -3.046755453000517     -1.916863299085182
H       1.818018185641215     -1.471986236311689     -1.821141059747185
H       0.308964599439200     -1.709805547951208     -2.681197415446577
22

C      -0.015935950718744      1.940262831649703      0.674852567395221
C      -0.868203943514832      1.005453031613867      1.742673816507210
C       0.353690551786297      0.315423770046709      2.370860507187875
H      -1.524687343749421      1.452006270364220      2.512057097834372
C       1.311572358441565      0.083318236225406      1.443163071547949
H       0.356436110699395      0.224682307043584      3.464514417432543
C       0.749301780352821      0.635177161737904      0.165442484383450
H       2.187125968649895     -0.443228458433066      1.526296110495382
H       1.391761255421254      0.819109185555584     -0.706587503710710
H       0.604494643560026      2.749732715784723      1.143460896057567
H      -0.820520387689064      2.454103049920267     -0.062021703157738
C      -0.446645463145156     -0.342046894578116     -0.380744355486380
C      -1.543368357827871     -0.125591435428780      0.747625404086709
H      -2.463367890275941      0.335452948791503      0.395111581419227
H      -1.765016198216345     -1.038451506542870      1.323754185138875
C       0.162813496009545     -1.716207291589399     -0.511312293014321
H      -0.743785787518344      0.051148869948369     -1.403270714642442
O       0.248763914472761     -2.437612513188535      0.501259375930062
C       0.726173775221704     -2.074214196892864     -1.809366665548169
H       0.322882131119611     -2.996233136183625     -2.190445467102286
H       1.774655457661520     -2.330828519089839     -1.625616022830232
H       0.692929180463852     -1.221832330601525     -2.519290153239963
22

C      -0.166347898670591      1.884463628695500      0.656820773737989
C      -0.816564685198503      0.963698794811950      1.714081152837192
C       0.332764724742175      0.321994057279164      2.459917497246909
H      -1.485728197856558      1.619637665688345      2.382306805424484
C       1.291247404212328      0.137900734010151      1.543243468656286
H       0.279856301734238      0.040768473033950      3.523844972763336
C       0.781974022310634      0.741944215468739      0.279678800580756
H       2.247812717543427     -0.309369786652533      1.711392038327847
H       1.485887657316022      1.062298680208654     -0.514370251564927
H       0.235844746893719      2.724434701110736      1.211197203554644
H      -0.849086251499924      2.122516685509879     -0.036166581433286
C      -0.295067229354218     -0.305766408941386     -0.230998840096062
C      -1.345912696778665     -0.165424954021283      0.745600572902802
H      -2.347105738718371      0.096212908510265      0.364201680853804
H      -1.464209853809286     -1.141898435612653      1.275963254908582
C       0.217024196483999     -1.701298208268962     -0.438741583187829
H      -0.774861111667158     -0.031878104323243     -1.227988889417381
O       0.337497479613098     -2.444132482529883      0.468059928012077
C       0.498575006640774     -2.182405462132494     -1.876785281126019
H      -0.439307242569030     -2.539767096658952     -2.225403299945188
H       1.068888072593849     -3.179389432480532     -1.879384250431670
H       0.858623221065833     -1.361260653520014     -2.597339560632250
22

C      -0.139334238765693      1.878152066534747      0.654128837259977
C      -0.906809228432059      0.929214452881879      1.699813134176496
C       0.358203912989476      0.320754168952949      2.448944853302553
H      -1.605509207579809      1.393312288567139      2.426064379957756
C       1.328828338773193      0.251977031094816      1.553237796059015
H       0.451960379715701      0.067240784181145      3.516102992354552
C       0.809842663730505      0.719920092629799      0.220487354056579
H       2.318413812957584     -0.203719355654769      1.812855512891656
H       1.585888314416271      1.104898849408658     -0.434003728532155
H       0.446672749462262      2.697269653338771      1.185232020130305
H      -0.839467277874982      2.246731980932072     -0.153419891351762
C      -0.212513729068626     -0.283847666245385     -0.261101534839744
C      -1.457582373313000     -0.049828906001553      0.786194278946710
H      -2.370201408482953      0.429666195506120      0.320248937366351
H      -1.845440466926653     -0.971781557802277      1.324498089494504
C       0.230426789726931     -1.771806328059731     -0.326052953651225
H      -0.652515954636121     -0.106480463979844     -1.218865795813814
O       0.463012519722681     -2.502924803486156      0.569389366183016
C       0.391434821154954     -2.338854247932311     -1.759958509651723
H      -0.217455540930474     -1.823074340835852     -2.570246609579079
H       0.180985452977116     -3.471260338020538     -1.792628407261729
H       1.419149047311282     -2.159294004061894     -1.916610330554096
22

C      -0.063233954107851      1.780761991748304      0.694743560854721
C      -0.872138519249044      1.061922255006721      1.709993946108808
C       0.289392906542729      0.409596106257767      2.397320941187470
H      -1.622752502383089      1.634462298130933      2.325297266581944
C       1.217016297728275      0.190880710672219      1.471908107344117
H       0.364559797653681      0.293339045063046      3.502666669902727
C       0.791690643423168      0.629874565614674      0.138461673809489
H       2.181892077934885     -0.336417105910029      1.734369454389120
H       1.466307737456120      0.826582373164325     -0.686748723624735
H       0.531952461842858      2.669580418763790      1.007204605508076
H      -0.844719055334587      2.280678557556260     -0.071856734870213
C      -0.356856832405196     -0.328191909510161     -0.324358964191555
C      -1.439361162788391     -0.161641460198696      0.770723596486158
H      -2.403704060336258      0.084223155296453      0.303699333601613
H      -1.513661097765110     -1.047492820855297      1.407416617691257
C       0.195701089920042     -1.722020456657190     -0.290890103667780
H      -0.659603251494726      0.079579472000475     -1.332171391979551
O       0.466781993501103     -2.286514654258110      0.767212645656695
C       0.649142746860896     -2.520798387452099     -1.531079420720839
H       0.876992412570996     -1.759281975578478     -2.366056373396232
H      -0.245628480867490     -3.184770354939336     -1.802187277339134
H       1.448382551695255     -3.164492537675915     -1.250212771220488
