22

C      -0.054358877019910      1.818292036192819      0.978000695886790
C      -0.885130400871850      0.756600608199369      1.646415371213540
C      -0.008396110223220     -0.265458063823011      2.008732505439470
H      -1.784426625062059      0.987833627452589      2.204802340157830
C       1.193718366157370     -0.113870754970751      1.298685222592910
H      -0.262245946600830     -1.114433596881321      2.628290239716101
C       1.120422421893490      1.020418721708359      0.528661857645340
H       1.993221352956530     -0.841390399401481      1.280148592263270
H       1.895057938714940      1.397305068361709     -0.125190678932640
H       0.287890694966570      2.516734345025499      1.757598249308760
H      -0.555458155466170      2.403955993682249      0.209272238163790
C      -0.700163294135400     -0.034993348405441     -1.014957068363840
C      -1.714487045356380      0.033886352619679     -0.075679580887860
H      -2.449619693011539      0.827769164010049     -0.151553653547790
H      -2.075477670016270     -0.904102434507051      0.329249252262580
C       0.037995126778830     -1.276911931387211     -1.164452438837120
H      -0.512837261450720      0.773727152348119     -1.710901131945380
O      -0.108000216134870     -2.202618371901111     -0.379100983467770
C       0.980229405324210     -1.405757663678131     -2.335145058936740
H       1.363078896085740     -0.442711049025371     -2.678088653987070
H       0.434233439777440     -1.866991205201431     -3.164376608054930
H       1.804753652694100     -2.067284250418121     -2.070410707689250
22

C      -0.052074648078056      1.821650360039336      0.977262095398156
C      -0.896157867449151      0.761729166373959      1.645807216502952
C      -0.002461449668040     -0.263584633060229      2.014488788443043
H      -1.774373809587301      0.996766867579475      2.204353686325373
C       1.196600435496757     -0.112390939499245      1.294955267815861
H      -0.267120998703740     -1.088818174422846      2.611634999536989
C       1.123372942675894      1.011910005625213      0.530749336830155
H       2.010370214587126     -0.847543768777299      1.314743382544915
H       1.905832725215002      1.384254350168563     -0.104864803137181
H       0.292862934265392      2.535960052991454      1.747194420700769
H      -0.539060111222356      2.405993214920914      0.250591867706101
C      -0.709392506578046     -0.031207419518599     -1.017793975166268
C      -1.715220902123868      0.036866091900122     -0.077831188106348
H      -2.437634940987265      0.851614809328559     -0.156360263429098
H      -2.081335608661601     -0.933156395170180      0.293047257589691
C       0.025013260632191     -1.278670321120531     -1.166885461572546
H      -0.487437881805272      0.792729873611024     -1.675178708943701
O      -0.113126252807780     -2.202860085951781     -0.378853060897938
C       0.974382454462014     -1.412158507848710     -2.327147148287225
H       1.373788520638706     -0.481403980536667     -2.675290447396620
H       0.390318635554168     -1.833702403834869     -3.170936630592852
H       1.833579444809026     -2.077624766628458     -2.070241087374391
22

C      -0.049588369196874      1.823928363966513      0.977146434755269
C      -0.905629673854398      0.766141439881673      1.644328159684764
C       0.003074476347377     -0.260321147516487      2.019199361499080
H      -1.772781754525303      1.008262214848842      2.208692809403593
C       1.200413703485355     -0.112142475915233      1.291955046315623
H      -0.275085304245255     -1.075426075120924      2.602242649871898
C       1.125527920581411      1.003991627819792      0.532600009282285
H       2.024704748674151     -0.851893545294561      1.349085666904472
H       1.920154175713426      1.377571785735929     -0.088100277940139
H       0.298571243846345      2.552756250785345      1.739635388676895
H      -0.531331846306159      2.415462409133974      0.281231230851596
C      -0.718325805656479     -0.027748782457994     -1.020515436658926
C      -1.716272966635488      0.040203579317393     -0.079376870593316
H      -2.428501126806892      0.874943229025847     -0.161712457261523
H      -2.088499232981615     -0.958119414774245      0.256701238874235
C       0.012703432463586     -1.280496303672376     -1.168967045225217
H      -0.462330196934143      0.813118157219492     -1.643208946447543
O      -0.118328610624247     -2.203195356888140     -0.378358557480657
C       0.968878013077405     -1.419142666067661     -2.319122019323880
H       1.386761088491917     -0.510932967790071     -2.674846460158021
H       0.347557431435939     -1.799493314032119     -3.177916391976134
H       1.853435453704219     -2.085956649024461     -2.069196609683441
22

C      -0.046918980306171      1.824743879891008      0.978516457305379
C      -0.913611700011013      0.770124991959490      1.641875386734190
C       0.008085261989190     -0.255148891305430      2.022930342897485
H      -1.778856477446773      1.023231403985334      2.220578650925914
C       1.205119109545760     -0.113628535257608      1.289852436160793
H      -0.285823879171086     -1.077810000060864      2.602920658289894
C       1.126880166633090      0.997052229470460      0.533882148816691
H       2.034838248170912     -0.851363170327720      1.381306059645163
H       1.937806117756514      1.373592135077690     -0.076334871256215
H       0.304313829521181      2.565039219509861      1.733818303358617
H      -0.534038380451595      2.435648266089590      0.295158936824480
C      -0.726087789036918     -0.025213395184535     -1.023161029543085
C      -1.718268274883539      0.043923693036079     -0.080531007464556
H      -2.420699217581210      0.896677935337503     -0.163959799185497
H      -2.093511022198700     -0.973437467108933      0.219933991170004
C       0.000888353286117     -1.282206266884534     -1.170546533568925
H      -0.436147730981610      0.833930943571677     -1.618209149960176
O      -0.123576391392978     -2.203569964712905     -0.377572884556716
C       0.963544773970635     -1.427361818334812     -2.311435593485535
H       1.401884179328170     -0.526758884046198     -2.678137449082387
H       0.312166618502395     -1.763573937436700     -3.182251361197286
H       1.860250117940794     -2.091147489564424     -2.067840856767567
22

C      -0.043927541122830      1.824704869542137      0.981476577313115
C      -0.919851284686168      0.773927419064704      1.638460016298850
C       0.012205967607222     -0.248503292828119      2.025705202192766
H      -1.791756690302425      1.038880829661117      2.237840649833635
C       1.210023750754017     -0.117019532669023      1.289000966993388
H      -0.296822461401697     -1.094314081927329      2.611156379277909
C       1.127276180136327      0.991668740711356      0.534579893134600
H       2.038871645384611     -0.846440465045698      1.408734504431623
H       1.958440817202484      1.371655362107389     -0.068781565504193
H       0.310049009514183      2.569701003842049      1.729180688122419
H      -0.544975455698321      2.464789137798904      0.292061881254991
C      -0.732365269745222     -0.023083101721428     -1.026118426488305
C      -1.721039057445098      0.047637234197522     -0.080920776408887
H      -2.412598505935794      0.912083906754800     -0.164815428513148
H      -2.097078137782010     -0.976652974076214      0.184467734570069
C      -0.009701527376929     -1.283973500426110     -1.172154488693721
H      -0.411044563981321      0.853861238867269     -1.596061478340578
O      -0.129276334156364     -2.203410323981282     -0.376626658317913
C       0.958710397678026     -1.436826197329960     -2.304982244235533
H       1.419552755279421     -0.532120174739866     -2.684085164260536
H       0.286785317822894     -1.725993863060221     -3.179894422081755
H       1.853008101475564     -2.090676316403920     -2.067712321716315
22

C      -0.040736825609298      1.824093953392896      0.985431021398654
C      -0.924623263370670      0.778201585460845      1.635210825085633
C       0.015175929355013     -0.241179932960058      2.028436233941695
H      -1.807160811387574      1.053953887144230      2.257157379474462
C       1.214858795544211     -0.122254892690204      1.289922414090743
H      -0.303524892844395     -1.116558024271738      2.621881147922367
C       1.127001432260587      0.987670439185964      0.534390038529539
H       2.039554582872300     -0.837946202116227      1.428834083733129
H       1.978892143867438      1.369578217471744     -0.063505810070320
H       0.316068754746187      2.565551357642111      1.724537620252824
H      -0.558905241410094      2.497111164445879      0.277336660564314
C      -0.737499289426706     -0.021089308723329     -1.028956357560960
C      -1.724911968206671      0.051186596404376     -0.080682598423703
H      -2.403773543356531      0.920263343893702     -0.164903854441434
H      -2.098633887028666     -0.969690983871956      0.147613032115673
C      -0.019761186379699     -1.285706140138351     -1.173447798638175
H      -0.387668890751273      0.867881201852490     -1.579892829685124
O      -0.135376763508608     -2.202983505059895     -0.375195700728479
C       0.953520316157975     -1.446808313119026     -2.299523505777969
H       1.439851442359920     -0.531434385641614     -2.690368877777099
H       0.270369008870612     -1.686909030976171     -3.170814731708111
H       1.833802080179634     -2.086594660452275     -2.068243841437201
22

C      -0.037959351338737      1.822958944266137      0.989753406468698
C      -0.927684885191047      0.782659284652999      1.632093810752731
C       0.016838463838627     -0.234183799726829      2.030808584489642
H      -1.817854096591859      1.067653507322572      2.275826824359898
C       1.219576254772080     -0.128838625010815      1.292304166300011
H      -0.305612302978971     -1.135379526196971      2.631225871541826
C       1.126180492261837      0.985844062198657      0.532666133028306
H       2.038687414262069     -0.828491700028183      1.444288333353939
H       1.995679354835178      1.366111765976601     -0.058918761159158
H       0.321808630259446      2.554988666948189      1.721844825278062
H      -0.569409714449667      2.523393745538761      0.261508228644001
C      -0.741072175128304     -0.019066711855692     -1.032027818473119
C      -1.729303073039114      0.054611200273391     -0.080222098492228
H      -2.395509724886903      0.924208154912500     -0.162659241725950
H      -2.099283278994601     -0.955948667044626      0.111967490430381
C      -0.029624595400118     -1.287148063570547     -1.174603908593829
H      -0.366034774048057      0.874720789798983     -1.567081147683478
O      -0.141437297461905     -2.202358586288857     -0.373307539183351
C       0.947970235048408     -1.456154804902908     -2.295128951881086
H       1.459426471333936     -0.529034283082286     -2.693636281557075
H       0.260239116550614     -1.649681977370790     -3.157893922328312
H       1.806349140381370     -2.084295483526308     -2.066557381296013
22

C      -0.035908836723725      1.821707401896388      0.992943914739400
C      -0.929520921982601      0.787058147395240      1.629409041438875
C       0.017097951013184     -0.227709967765502      2.033218793563185
H      -1.820793360546018      1.078464357894708      2.289741035332461
C       1.223266296339531     -0.136154277679993      1.296052623253759
H      -0.303254228666990     -1.145516427458534      2.633474362077224
C       1.125433804755510      0.985739384005622      0.530099807915667
H       2.040899602154357     -0.820737527897890      1.455089398435371
H       2.005599558575148      1.360714464053108     -0.053310902203406
H       0.327428886468021      2.541952913855775      1.722492794731420
H      -0.572625840971033      2.539219214875546      0.251464518812658
C      -0.743719941415509     -0.017179335579526     -1.034812674061160
C      -1.733403910305186      0.058201847498798     -0.079794414627468
H      -2.389340757557994      0.926869687055103     -0.157644605715619
H      -2.101406093864086     -0.938412936223349      0.079818712814381
C      -0.038509021427452     -1.288753882158966     -1.176142562090201
H      -0.348189855841861      0.871842715716075     -1.557826341668148
O      -0.147699178387808     -2.201318111992557     -0.371339085654342
C       0.942385745184924     -1.463991071812232     -2.292061025034351
H       1.472516958839793     -0.530547994760903     -2.690050234196850
H       0.255627269708971     -1.613743353017380     -3.141674338665208
H       1.775763919324814     -2.088604453248522     -2.060481485328120
22

C      -0.034636539763804      1.821461806709082      0.994478610696176
C      -0.930451114736427      0.791152911013455      1.627470095885125
C       0.016357731921064     -0.222018552147098      2.035854079215756
H      -1.812152760476413      1.083786247956887      2.296869634706382
C       1.225094711226554     -0.143444384841193      1.300965063565815
H      -0.295917146129026     -1.144119926951163      2.626423324040938
C       1.124774808001441      0.986913358178479      0.526642299947494
H       2.049960898964680     -0.817275014832915      1.459826177222013
H       2.006780463199159      1.353941049365230     -0.045520827255213
H       0.334464822525389      2.529307309961719      1.728263824022741
H      -0.567632877883799      2.539643155679127      0.249944203715371
C      -0.745179183267497     -0.015486381358977     -1.037261208147836
C      -1.736844450732046      0.063474792267732     -0.079082009610767
H      -2.387083781153322      0.930449051888460     -0.150768868096158
H      -2.108160084282471     -0.924999055666366      0.052621707253191
C      -0.046514569719798     -1.290143231159021     -1.177732082714173
H      -0.335775210587794      0.859418427997592     -1.551909464080145
O      -0.154410961900404     -2.200538094918248     -0.369179418034674
C       0.936531393844571     -1.469232752988928     -2.289954464786118
H       1.476316533857825     -0.540703034307471     -2.679131797035917
H       0.252095370908241     -1.583965915244621     -3.128182739556531
H       1.748063008079446     -2.105163582059075     -2.048788234246217
22

C      -0.034111981338051      1.821812057047248      0.994515854184921
C      -0.930564589067768      0.794916683472480      1.626936742162868
C       0.014498037871544     -0.216803845843685      2.038613319098245
H      -1.792045406153267      1.085739997604816      2.294995575512372
C       1.225418677754353     -0.150252514728872      1.307100812353301
H      -0.284041030902217     -1.130829668879223      2.609881704237225
C       1.124918137101411      0.988596959075572      0.522721645166652
H       2.064544350818839     -0.817726176148912      1.459645199032485
H       2.000200573933772      1.345702177577530     -0.036916761290362
H       0.344660144084820      2.518434254316474      1.740255188100542
H      -0.554282384935931      2.527218625004097      0.257585385670771
C      -0.745878160591477     -0.014193230038958     -1.039186716266779
C      -1.739486174227109      0.069759772741077     -0.078469015899323
H      -2.391928124621974      0.935737362434825     -0.142682591928275
H      -2.121009894781200     -0.918726827146332      0.029700621910211
C      -0.054274188140750     -1.291786697196850     -1.179350861711833
H      -0.327051071086675      0.842738721480852     -1.552325160290689
O      -0.161193345368360     -2.200145604016350     -0.367032658758470
C       0.930601653388036     -1.471914866052039     -2.288234517387164
H       1.472401424678555     -0.557957227046836     -2.665047457980064
H       0.247777178362722     -1.557460289483363     -3.120108549455505
H       1.724867957406901     -2.136860134020238     -2.034067216074052
22

C      -0.033412679677918      1.822921359818904      0.993230274517574
C      -0.930054722852478      0.798424996985655      1.627129609604500
C       0.011209586247636     -0.212553676418082      2.040573939505623
H      -1.766029705916522      1.085488832197964      2.287639279545616
C       1.224454921467601     -0.156650985100341      1.313724272937395
H      -0.267895590031102     -1.108657441575643      2.588593273684844
C       1.125255668795924      0.990822534497456      0.518996122002259
H       2.083285221284918     -0.821300679809657      1.454480132093608
H       1.990371458419430      1.340144244581286     -0.029054417145370
H       0.357550739992740      2.507314984198756      1.758245102468915
H      -0.535049772897854      2.504585350536229      0.269452460939312
C      -0.746119461280273     -0.013518280316721     -1.040484914340462
C      -1.741578731126726      0.077314274309223     -0.078470903085573
H      -2.401929392301888      0.942435044427057     -0.131761713255741
H      -2.137220371716400     -0.919202943077255      0.011724568523769
C      -0.060936948700198     -1.293330513517338     -1.180113615857013
H      -0.320294719865337      0.826679838124859     -1.559615343606856
O      -0.168603813603559     -2.199985208591763     -0.364256067213376
C       0.924349796843435     -1.472712723856183     -2.287147629839358
H       1.464979655030602     -0.579269341055055     -2.644669842827715
H       0.242082193925682     -1.535160538277815     -3.120334842261786
H       1.707506259893010     -2.181521817460024     -2.017789811852130
