22

C      -0.054358877019910      1.818292036192819      0.978000695886790
C      -0.885130400871850      0.756600608199369      1.646415371213540
C      -0.008396110223220     -0.265458063823011      2.008732505439470
H      -1.784426625062059      0.987833627452589      2.204802340157830
C       1.193718366157370     -0.113870754970751      1.298685222592910
H      -0.262245946600830     -1.114433596881321      2.628290239716101
C       1.120422421893490      1.020418721708359      0.528661857645340
H       1.993221352956530     -0.841390399401481      1.280148592263270
H       1.895057938714940      1.397305068361709     -0.125190678932640
H       0.287890694966570      2.516734345025499      1.757598249308760
H      -0.555458155466170      2.403955993682249      0.209272238163790
C      -0.700163294135400     -0.034993348405441     -1.014957068363840
C      -1.714487045356380      0.033886352619679     -0.075679580887860
H      -2.449619693011539      0.827769164010049     -0.151553653547790
H      -2.075477670016270     -0.904102434507051      0.329249252262580
C       0.037995126778830     -1.276911931387211     -1.164452438837120
H      -0.512837261450720      0.773727152348119     -1.710901131945380
O      -0.108000216134870     -2.202618371901111     -0.379100983467770
C       0.980229405324210     -1.405757663678131     -2.335145058936740
H       1.363078896085740     -0.442711049025371     -2.678088653987070
H       0.434233439777440     -1.866991205201431     -3.164376608054930
H       1.804753652694100     -2.067284250418121     -2.070410707689250
22

C       0.057213826817394      1.771896276070621      0.849043504613579
C      -0.740342077714318      0.760967048412414      1.646110580592280
C       0.074446137514455     -0.319996792276985      1.945166815177513
H      -1.655051972288041      1.028816036982758      2.146759787918114
C       1.319008217182199     -0.178427722253181      1.198797046677691
H      -0.201795132449485     -1.178631123583053      2.602777126246307
C       1.301548873103537      0.998594986829731      0.514818109766455
H       2.161797461703986     -0.885775336814686      1.009756861863296
H       2.032619274020115      1.377030620465705     -0.186531276829548
H       0.372676135854733      2.518289789238997      1.566819082823996
H      -0.501958704253758      2.318403378547722      0.063716029919073
C      -0.757244503933333     -0.139605074571496     -1.073272141160098
C      -1.761767976467870     -0.221796980072904     -0.132310902259260
H      -2.552008264265461      0.489225761079464     -0.163771315922120
H      -1.950255082464815     -1.164058771995443      0.427963458686254
C       0.093259860592176     -1.344504233085363     -1.079704087530710
H      -0.528754850324981      0.663054135072393     -1.817982458078468
O      -0.150528664105495     -2.216165968993338     -0.280313846977221
C       1.115005156010906     -1.564918294040167     -2.260369944853744
H       1.434211348080523     -0.621273878126956     -2.693373989728609
H       0.609867575591131     -2.138619876190541     -3.054870007587310
H       1.984387733480015     -2.169487150269774     -1.978953521188674
22

C       0.148170231343023      1.722864330031687      0.864574476677201
C      -0.541617888908996      0.771407860633562      1.778478803803765
C       0.250286080597836     -0.317444523995503      1.946659677131230
H      -1.464309862319476      0.909490886776923      2.346270389638246
C       1.414493262672874     -0.187723417202642      1.135783865762637
H       0.050556647896825     -1.295064812820024      2.502567218135843
C       1.387779407763379      0.950971178211690      0.427549507706430
H       2.289513790251071     -0.923349398494146      1.137905597141187
H       2.166200695069293      1.426257047470756     -0.172056357694052
H       0.422463711556097      2.658290669680921      1.316723020553232
H      -0.499049948311564      1.919535382276182     -0.028554292711521
C      -0.873904465479720     -0.329443972379504     -1.232199536160439
C      -1.873592356809779     -0.292787932077712     -0.341905833211047
H      -2.533582604771489      0.530792463209936     -0.307556197140410
H      -2.047209115236334     -1.194747783446861      0.319842054679857
C       0.047392318327266     -1.535554141713851     -1.135011593561396
H      -0.536585594091223      0.415624297188811     -2.038410437311196
O       0.023787078442167     -2.316216278087693     -0.211401787802198
C       1.165579798845022     -1.666369808963213     -2.109531268118806
H       1.519915306057513     -0.710898855879057     -2.474424228410517
H       0.827796668891075     -2.271408829460846     -2.972766579155016
H       1.906775848142321     -2.297128322960012     -1.608369637644400
22

C       0.232668551647702      1.686891852876857      0.857449708539556
C      -0.318954523406284      0.835210072087044      1.902053054392807
C       0.406145659737385     -0.288999976900247      2.010684155344904
H      -1.295446395689686      0.936681601419772      2.403878505712467
C       1.548417988545228     -0.184924552016687      1.142487180701082
H       0.159154454682054     -1.150307591607392      2.746014841998108
C       1.460271316825255      0.928654944016139      0.411994723506281
H       2.310544122967574     -1.021064282220731      0.999662430052607
H       2.009798947507249      1.281170165321700     -0.454742082727822
H       0.444428327666374      2.665223508232677      1.247318603579200
H      -0.461933288663593      1.770639045033329     -0.015038793287263
C      -0.977282123752010     -0.683891777947769     -1.388344829206271
C      -2.008529867424753     -0.374833745202974     -0.611772506824502
H      -2.584142786480835      0.524812321646534     -0.772057280429010
H      -2.328709715497254     -1.020646928651102      0.270212992764301
C       0.163323287048303     -1.697008990309581     -1.103759671456182
H      -0.801294222015702     -0.047705469912961     -2.336879146408728
O       0.039188383966668     -2.428888680643416     -0.132589350979747
C       1.298804210821212     -1.739406020143965     -2.077044180743867
H       1.570769128129785     -0.743395481838726     -2.396047182759070
H       0.964679459075385     -2.270208283608836     -2.979389266784310
H       2.108553166194737     -2.345761684861213     -1.630465459638891
22

C       0.315937580553615      1.667426237014634      0.798415479442790
C      -0.201372605409369      0.852962717931560      2.011276245973705
C       0.635354204130923     -0.204012806964463      2.193653983057761
H      -0.989116571470601      1.269462583868722      2.674666813537324
C       1.646179733566703     -0.218068604695322      1.113600150838761
H       0.543773758123123     -0.962832300587459      3.052307262328883
C       1.504120793706232      0.871645704798387      0.336238573658297
H       2.441629764390671     -0.987001636259915      0.951759461822174
H       2.227647183182456      1.231727176283676     -0.387409106226137
H       0.599992824888423      2.670714966865371      1.066926107917154
H      -0.473944803426882      1.835804186693497      0.018387661384468
C      -0.974178217263765     -0.977951789007829     -1.568267566389256
C      -2.025975450493390     -0.563833468526455     -0.901707255868212
H      -2.872635105580026      0.033966858458000     -1.334811550289803
H      -2.158980021652827     -0.865017722134661      0.138296490823640
C       0.143351246248108     -1.834320478225195     -1.071754613995995
H      -0.861338322483569     -0.591050659114595     -2.665680445251470
O       0.047255159577594     -2.536790053573828     -0.071957707385754
C       1.323084423898500     -1.755702726064087     -1.994556046075809
H       1.537068953465424     -0.708722760478918     -2.161873160627827
H       1.154335815331115     -2.179186390938041     -2.996389072634002
H       2.116106927874873     -2.287275489658827     -1.441769082912829
22

C       0.420494140567941      1.657746397951501      0.838284275290354
C       0.025928439491393      0.971370401555605      2.120030296492070
C       0.832660018365594     -0.099937601545657      2.269449828179591
H      -0.773602039003411      1.369845703709005      2.727389594975258
C       1.795331333134357     -0.195508897029964      1.181632903961285
H       0.748245388054269     -0.876307367332297      3.068239343955876
C       1.494979592634592      0.801996466214238      0.299637089343046
H       2.515136393069345     -1.019248798325330      1.171051288308726
H       1.905293732041724      0.802852959756345     -0.703458926749109
H       0.739089288654161      2.703434932776420      0.907447169095491
H      -0.465739492716247      1.723197516709607      0.195394042943551
C      -1.013193172239871     -1.244030136158228     -1.824887516974064
C      -2.061157838831322     -0.847366478437965     -1.135629380610549
H      -2.945575119170563     -0.266929678459715     -1.585243762837415
H      -2.098728667867034     -0.973561559161512     -0.080755605225879
C       0.081850581524865     -1.990856639707438     -1.132342021026194
H      -0.938706997723542     -0.893871933242919     -2.937884364079322
O       0.029037976237653     -2.571754740423206     -0.067242384800589
C       1.412103114069757     -1.834599113654245     -1.831136887906609
H       1.585446650824375     -0.786383093835042     -2.003401892112847
H       1.288032350670140     -2.167082594592924     -2.869602823367905
H       2.254807635093878     -2.346893360403759     -1.320429386266061
22

C       0.490675028959444      1.616615795026785      0.845793125683893
C       0.282109359123222      1.069644667098048      2.220797759249773
C       1.047457748995872      0.014391835770824      2.405882398093291
H      -0.437384622755331      1.420350227922598      2.939294029485055
C       1.869098580771708     -0.191229669573416      1.191894862821626
H       1.076314158034892     -0.466706478821678      3.358251356168241
C       1.523670800983392      0.783665126515980      0.270762393016590
H       2.605957281862525     -0.951516965291696      1.189593612096981
H       2.112441195214062      0.958891263590993     -0.632245588787518
H       0.902190057172070      2.628431558675409      1.015783392754311
H      -0.384114096724469      1.833551276399030      0.237924104028798
C      -1.051935848410068     -1.567426767587964     -1.965947935367913
C      -2.143590491226705     -1.155879305656585     -1.320247683659982
H      -3.015783965181284     -0.576298962396269     -1.730396068501467
H      -2.318867350393295     -1.322320646701111     -0.282924556947805
C       0.095452330618005     -2.058072387577300     -1.216910154581033
H      -0.995223952219583     -1.461356679198761     -3.101878075550169
O      -0.135937897506813     -2.547170361614261     -0.132543905900090
C       1.581031716263825     -1.979137497594043     -1.760595600928315
H       1.768479574187402     -0.964993330034987     -2.092557113845827
H       1.707761231418436     -2.501099325002994     -2.694553867015976
H       2.352127186542971     -2.272929912303960     -0.983761077137785
22

C       0.647299227337380      1.710725305216095      0.913803572430470
C       0.440894889291354      1.130739823914762      2.334739513275545
C       1.305755264691975      0.123507277099673      2.491575615813917
H      -0.202677094260547      1.481783386300873      3.126725530368355
C       1.981950722330792     -0.195313775680337      1.203647959102134
H       1.445276316018612     -0.472130866340032      3.325408524139124
C       1.582475506930071      0.774318429946677      0.282919946521212
H       2.550748656090122     -1.087566773887241      1.041781444616233
H       1.933916875087326      0.798933568821520     -0.748331752915272
H       0.813928219942224      2.820901283530056      0.943920667374155
H      -0.225902181961736      1.585119288313108      0.262862110301326
C      -1.022491765642077     -1.688045244820286     -2.161391026864441
C      -2.199095094052506     -1.485096474539952     -1.576768336479334
H      -3.157423762616821     -1.253276805396396     -1.996293896671902
H      -2.303897779255050     -1.621500393504435     -0.495562642772790
C       0.061413647340531     -2.181831088237426     -1.232366340922715
H      -0.825888339963811     -1.442795357631776     -3.237801935108018
O      -0.146684397413729     -2.579679058476466     -0.115074995746930
C       1.491684491045469     -2.152813497961504     -1.721408360137826
H       1.774708782867788     -1.264562923447496     -2.277814216040815
H       1.685356511820031     -3.005248474857872     -2.330936993522607
H       2.010488107840253     -2.167344804818813     -0.733700887659241
22

C       0.690586499655437      1.703674581795989      1.004218675395946
C       0.770880546175493      1.282792836062830      2.425993496564331
C       1.452230336921402      0.123785768453584      2.543975972085966
H       0.170305650872235      1.846819036411667      3.151050813431756
C       2.086351044127544     -0.182119128655528      1.228701269890320
H       1.677909405522112     -0.528047655715569      3.285002026580729
C       1.654217299626910      0.792572633983625      0.334404335851519
H       2.903202743686915     -0.857113758805056      1.010155884704625
H       1.900749547084224      0.814042374747633     -0.731010687903149
H       1.126028329297831      2.752560560284850      0.843394105865523
H      -0.372637622223846      1.739496002032501      0.743647734218353
C      -0.988264932201017     -1.827662975456831     -2.214856284716594
C      -2.288699666586180     -1.840029491392744     -1.882912603390358
H      -3.006457075122750     -1.533095065404860     -2.583062257015287
H      -2.660116461517151     -2.042105818695545     -0.860017359569499
C       0.093948884889640     -2.284847967151071     -1.220964823905127
H      -0.702891630888111     -1.531693600205714     -3.229968911949998
O      -0.250856199828770     -2.613797360675620     -0.106593165870317
C       1.458889673317469     -2.303751173867369     -1.751750995435900
H       1.594046381885458     -1.629909747481723     -2.581273293037122
H       1.499568440417286     -3.259046777314820     -2.191214077791729
H       2.220921517938567     -2.075753481527989     -0.933853514847358
22

C       0.858507143234409      1.777768009900723      1.126381475072825
C       0.940583325621252      1.325102112896082      2.519695521269616
C       1.707025283604156      0.256628801477350      2.612697541547296
H       0.592069698619212      1.796306374122017      3.466138767204055
C       2.174787511208520     -0.139339949793078      1.284444638747038
H       1.969799278591529     -0.312914416057365      3.423710796334735
C       1.688939140130661      0.768308682219507      0.345798996187940
H       2.631877369184982     -1.063155977123473      0.999102491767082
H       1.850213460004209      0.753069145218446     -0.734671921987721
H       1.253487694195353      2.828485512001313      0.821556391029401
H      -0.182893602116894      1.628044645341768      0.822537495298799
C      -1.024924126586864     -2.011342148431974     -2.279049296819917
C      -2.370023434080110     -2.134086247911445     -2.197076165707227
H      -2.970518634781136     -1.697941036157826     -2.929254357340751
H      -2.731547107848300     -2.729828724750681     -1.344764319807461
C      -0.007324646255029     -2.383520537233645     -1.271444715946644
H      -0.537210657495798     -1.652111330099221     -3.177061578846857
O      -0.268441257306953     -2.634032029153425     -0.107555804389312
C       1.446225814389394     -2.487019464916059     -1.786372137337380
H       1.663087572474411     -1.955966808897394     -2.702478988380280
H       1.745269936410205     -3.481874893447118     -1.940628283979671
H       2.047223970102873     -1.947504645281666     -0.972753443308475
22

C       0.980431856361650      1.829413726026806      1.172270527350360
C       1.182091725833439      1.419933821063027      2.569852447458000
C       1.928973337379802      0.335922777959652      2.680957374757926
H       0.676114644148563      1.851289378466618      3.496382206129015
C       2.206593612203294     -0.177726485025536      1.348062260176684
H       2.183510127344471     -0.105350794691567      3.604281741226818
C       1.717885276100427      0.728373647416602      0.396874676033798
H       2.784612098642891     -1.009901107674492      1.013009581628509
H       1.788746282121286      0.675086881339415     -0.711101766214180
H       1.503118968557094      2.905146140466849      1.061105422872908
H       0.018106322532212      1.855973359084723      0.698487893043752
C      -1.041671918965610     -2.116602325590998     -2.419043358620743
C      -2.350767493666200     -2.440685807708664     -2.341276449485249
H      -2.922557171744886     -2.192893915792140     -3.204514639768207
H      -2.693146026626623     -2.984544146243454     -1.459600289178075
C      -0.072518357183659     -2.497393934007810     -1.347735025818927
H      -0.598548977543340     -1.565881161104282     -3.211855156387974
O      -0.310760397357636     -2.662990540084793     -0.163384220255410
C       1.383904147202643     -2.643260746898814     -1.758394450997959
H       1.623398846505751     -2.586219454432280     -2.806370089413762
H       1.795544574819386     -3.522420630391035     -1.392477285860646
H       1.858757083210141     -1.708335957092133     -1.276969258937239
