22

C      -0.054358877019910      1.818292036192819      0.978000695886790
C      -0.885130400871850      0.756600608199369      1.646415371213540
C      -0.008396110223220     -0.265458063823011      2.008732505439470
H      -1.784426625062059      0.987833627452589      2.204802340157830
C       1.193718366157370     -0.113870754970751      1.298685222592910
H      -0.262245946600830     -1.114433596881321      2.628290239716101
C       1.120422421893490      1.020418721708359      0.528661857645340
H       1.993221352956530     -0.841390399401481      1.280148592263270
H       1.895057938714940      1.397305068361709     -0.125190678932640
H       0.287890694966570      2.516734345025499      1.757598249308760
H      -0.555458155466170      2.403955993682249      0.209272238163790
C      -0.700163294135400     -0.034993348405441     -1.014957068363840
C      -1.714487045356380      0.033886352619679     -0.075679580887860
H      -2.449619693011539      0.827769164010049     -0.151553653547790
H      -2.075477670016270     -0.904102434507051      0.329249252262580
C       0.037995126778830     -1.276911931387211     -1.164452438837120
H      -0.512837261450720      0.773727152348119     -1.710901131945380
O      -0.108000216134870     -2.202618371901111     -0.379100983467770
C       0.980229405324210     -1.405757663678131     -2.335145058936740
H       1.363078896085740     -0.442711049025371     -2.678088653987070
H       0.434233439777440     -1.866991205201431     -3.164376608054930
H       1.804753652694100     -2.067284250418121     -2.070410707689250
22

C      -0.057534335829831      1.807318534244378      0.982520976614546
C      -0.884142613195423      0.759211120525714      1.643113193433021
C      -0.014413201466357     -0.263110843160337      2.001980721244067
H      -1.765040748872030      0.978640740322770      2.206495647778707
C       1.192630847641722     -0.115332010984000      1.291962251475138
H      -0.269546565684525     -1.094407244603407      2.611699498924549
C       1.117427098107650      1.010767798583016      0.520193195429634
H       2.007811649321144     -0.861028358374234      1.292139054906331
H       1.858363060440179      1.379280738835168     -0.117542510713134
H       0.328233264936185      2.538134962793860      1.766641686266039
H      -0.545205628938579      2.398577011548690      0.181070903387842
C      -0.699890226225895     -0.045285165615251     -1.020280179066086
C      -1.722701616445143      0.040315233946043     -0.079573743868460
H      -2.427251367914411      0.802880728796397     -0.146803098288277
H      -2.060152385106588     -0.900434385483315      0.299700351227239
C       0.041141512582247     -1.261661705471037     -1.153419401731847
H      -0.503760454763989      0.750982585929106     -1.725549240357810
O      -0.107407469351394     -2.205992010259810     -0.376879781976313
C       0.992169136675801     -1.410462014862417     -2.340980591789676
H       1.369523669593608     -0.444313834118380     -2.671492666280112
H       0.429734173430660     -1.868187120863379     -3.156713993316303
H       1.801569499620237     -2.041797009298632     -2.084137507723364
22

C      -0.060310808652237      1.796895439885355      0.987049468659972
C      -0.882641643679114      0.762484072949697      1.639245681220975
C      -0.020227689195356     -0.260841257675602      1.994588272873004
H      -1.751373981424663      0.971613436283108      2.212466956088557
C       1.192325092900865     -0.117317609483536      1.286082442762362
H      -0.278604931275495     -1.083513559037469      2.600177987151922
C       1.113064624733771      1.001160360277883      0.511806016083999
H       2.019741279292359     -0.876934846050103      1.304154065387007
H       1.834871434246129      1.368997287766963     -0.119777948537232
H       0.363961381598157      2.551494046224997      1.768709713190833
H      -0.531138635335642      2.392183907466289      0.156765736567486
C      -0.700300493969519     -0.055029796035065     -1.024805326721126
C      -1.729938498982067      0.045980755256316     -0.083502362895026
H      -2.418067726260198      0.792467591893565     -0.145508968882262
H      -2.049118900095924     -0.901329627915364      0.274118432728175
C       0.044833887800089     -1.247862821079629     -1.142467958761001
H      -0.496198559029348      0.730128427981421     -1.742789152996774
O      -0.106222466796752     -2.209226664035190     -0.374557388950073
C       1.002984961334609     -1.415030263517599     -2.346897284714096
H       1.377210311520426     -0.444120029110328     -2.669498240795662
H       0.423374062195315     -1.869930061535052     -3.151835212591020
H       1.807724230854421     -2.024773339724016     -2.093685919901604
22

C      -0.062480514836827      1.787789453500058      0.991445751257396
C      -0.880447461422161      0.765783021239663      1.634864258746462
C      -0.025826731160827     -0.258398671615394      1.986585117404739
H      -1.744917180833760      0.965496142785251      2.222625031659075
C       1.192936976379679     -0.119371701719383      1.280679013410701
H      -0.289272656987284     -1.084700166074163      2.597145030496351
C       1.106691739863282      0.991853771259711      0.504469001125150
H       2.023222324662658     -0.886246808185956      1.314430489310523
H       1.831248786264524      1.367983166645359     -0.136494279973124
H       0.390882971654039      2.550167136410103      1.758515691675538
H      -0.514064555413364      2.381104088184721      0.140007510654769
C      -0.701183491117679     -0.063442788067054     -1.028797106101025
C      -1.734947890018243      0.050674852402026     -0.088179877480953
H      -2.428485358865343      0.803162848950246     -0.146493901856111
H      -2.043257635221731     -0.909302396889528      0.253156915165445
C       0.049234622230159     -1.236625327679244     -1.131191245173863
H      -0.489485405399616      0.711409175009153     -1.761359008893982
O      -0.104886344127186     -2.211733045473478     -0.372352258140121
C       1.011998069831976     -1.418123944755726     -2.352294001764605
H       1.386473362067299     -0.442572116560563     -2.669693990121473
H       0.416514391999721     -1.874128873509777     -3.150794868033917
H       1.828143240128727     -2.021184438184104     -2.097214337945089
22

C      -0.063553315587715      1.781021395753414      0.995520054335675
C      -0.878365967856146      0.769060169647698      1.630389939653685
C      -0.030966973354232     -0.255871666764509      1.978092825326797
H      -1.747673335234126      0.961572456593003      2.238920270370735
C       1.194636924390765     -0.122720363504744      1.275751981404410
H      -0.300175805404747     -1.094858062125432      2.601683036875764
C       1.099385334355409      0.982375192346193      0.497555074347226
H       2.018706668870788     -0.886135960266868      1.322401745244089
H       1.843431309623283      1.374748812711009     -0.164588328029188
H       0.407958017470983      2.532996945381870      1.737452889508471
H      -0.495535991105521      2.365513253656875      0.133156673128789
C      -0.703263562650142     -0.070323722494966     -1.032456277934767
C      -1.738599468545449      0.054096048821945     -0.093614348847109
H      -2.455431985965501      0.833043203702066     -0.147896129689952
H      -2.042162757275635     -0.924421027371416      0.240266341950132
C       0.054975068961524     -1.228841455683127     -1.120748282851716
H      -0.484443648630358      0.695886502116076     -1.778842787515599
O      -0.103887821477851     -2.213353373110618     -0.370613215104672
C       1.018843479749383     -1.419746131083023     -2.356737616175610
H       1.397307963524780     -0.441583481203636     -2.672023132987212
H       0.409175439715956     -1.879009594629329     -3.150682146200428
H       1.862161850163115     -2.026822380414573     -2.094929968118017
22

C      -0.063138922511224      1.776133403480506      0.998424212151398
C      -0.877167441180586      0.772402049062574      1.626692362994314
C      -0.035075440775914     -0.253844403390913      1.969407334967495
H      -1.755720020527849      0.957898135406600      2.257942937070038
C       1.196900970345193     -0.127459724080881      1.271835240455789
H      -0.309863572836176     -1.108217127511818      2.609412539880360
C       1.091359845461346      0.972945268405719      0.490452674883259
H       2.006731395845256     -0.877120383966763      1.328457545732232
H       1.860816199613503      1.384291667094374     -0.197604620147770
H       0.415198181637143      2.504495375689111      1.710536665172270
H      -0.475424626691750      2.346809327673367      0.134519270045106
C      -0.706153314873869     -0.074655049012325     -1.035988584308754
C      -1.741234446083352      0.056860490496921     -0.099324606614714
H      -2.489046325830101      0.872108717148853     -0.152229452710791
H      -2.045607898431375     -0.942656681124457      0.231811546407472
C       0.062277957916237     -1.225461685706805     -1.110816055690224
H      -0.481812446175301      0.683177677801639     -1.797565238258966
O      -0.103178613190947     -2.213633573293217     -0.369183303416107
C       1.024742580002313     -1.420270418286139     -2.360158586857423
H       1.410239458906493     -0.441116308274080     -2.677104612754148
H       0.403028022320460     -1.883669015298315     -3.152457009974644
H       1.901930085631963     -2.037526010081391     -2.088238903788971
22

C      -0.061424280588684      1.772875404450523      0.999668216462640
C      -0.877612188607103      0.776180656426884      1.623945761978509
C      -0.038219951468235     -0.253396225784494      1.960602156594973
H      -1.765515639429287      0.956374588759116      2.277339151310294
C       1.199128797133138     -0.133417802025626      1.268675314572996
H      -0.318023050835267     -1.118724851758657      2.615588024888360
C       1.083678056816281      0.963439640568959      0.482172194368156
H       1.990188632888910     -0.863994730587103      1.332387514381494
H       1.874492807350901      1.392719899408641     -0.226608350609547
H       0.414698754596062      2.468751885390930      1.684510220295267
H      -0.456286971996333      2.327738469794428      0.141767173465553
C      -0.710219075676157     -0.076329805942755     -1.039805170110667
C      -1.743963884104756      0.058996234167149     -0.104818871323848
H      -2.519916641519165      0.908244627942404     -0.157325560354875
H      -2.051093371141440     -0.959445850279469      0.224908382894290
C       0.071140577321002     -1.226551604427456     -1.101428602239679
H      -0.480177375017277      0.670772307950334     -1.812956294217785
O      -0.102179938379634     -2.212512079583707     -0.368197677441022
C       1.030705511639440     -1.420141925727771     -2.362861726903295
H       1.425200688590795     -0.442448465991652     -2.685354498817338
H       0.398599591158647     -1.886711253325357     -3.154339950498488
H       1.937071131764950     -2.046561252379967     -2.077472762935497
22

C      -0.059423076870664      1.770957842611566      0.999198351105203
C      -0.879949280462516      0.779893885835431      1.622544440811345
C      -0.040600759005424     -0.255121873530400      1.952153341520569
H      -1.772668080244609      0.955408683730125      2.292659326614112
C       1.200863191097010     -0.139896320939550      1.266792366584772
H      -0.321855638246729     -1.123168920048221      2.614936116174664
C       1.077280438040811      0.954548899937997      0.472436283474185
H       1.978025556406990     -0.854645207097563      1.335002471251311
H       1.877138380801303      1.394715905284458     -0.245343346230025
H       0.412435958738508      2.436994235908803      1.666233353567234
H      -0.443371750152296      2.312654812638322      0.151136954996933
C      -0.715390624695800     -0.075234546747562     -1.043604135474803
C      -1.747799819016161      0.061477704059316     -0.110435500440655
H      -2.537749576047278      0.930600825293188     -0.161561193623447
H      -2.057903875248477     -0.969606111577445      0.217954158913295
C       0.081747623235770     -1.231390618942183     -1.092781396660516
H      -0.481059067176685      0.660002044570271     -1.824563279207378
O      -0.100647482652082     -2.210048357513314     -0.367312779152963
C       1.037472054215228     -1.419863686960418     -2.365238621575162
H       1.438795685139776     -0.447473198147054     -2.693174047466135
H       0.398399099949525     -1.887357754095947     -3.152946692813404
H       1.959815434542135     -2.051418889861292     -2.068087724932244
22

C      -0.057227999611344      1.769335033623385      0.996701325132449
C      -0.883956856639484      0.782763908204245      1.622797757227964
C      -0.042188290286926     -0.259280891268267      1.944508772531415
H      -1.776458223789425      0.956483508143173      2.302620045794732
C       1.201402389677155     -0.146193095900437      1.265298865363887
H      -0.321862854529227     -1.117825492775477      2.605138675700595
C       1.072323122621376      0.946296319969953      0.461189809966533
H       1.975514523979885     -0.855522634109465      1.336609184844501
H       1.862654319785152      1.388311061421620     -0.250573736404229
H       0.412592990627308      2.416370590048414      1.663741355762939
H      -0.438551511206087      2.305882113835630      0.158315911840306
C      -0.720877335431191     -0.072595146120487     -1.047451755366752
C      -1.752658420173385      0.064279807929842     -0.116524190987987
H      -2.537688822145028      0.933783199699298     -0.166787367611409
H      -2.065923802631109     -0.969599847747239      0.210539653327603
C       0.093343385702320     -1.239781003743279     -1.085219171739516
H      -0.486668976903152      0.651433493120169     -1.832608247211229
O      -0.098541980495284     -2.206650612472607     -0.366075457591579
C       1.045072140682389     -1.419161210272637     -2.366753951657200
H       1.448406831341259     -0.454281814398307     -2.701067057989832
H       0.402036550678032     -1.885427727836122     -3.148175594977150
H       1.965768687351261     -2.046531744306430     -2.059832779662554
22

C      -0.055087977547053      1.767327346574047      0.992071349554703
C      -0.889756848749844      0.785194455926399      1.624502764520372
C      -0.043385555640583     -0.265530285987454      1.937626052553824
H      -1.774553193447991      0.959377439371839      2.304864476574160
C       1.200359717857377     -0.151488231649054      1.264339864544050
H      -0.317480290496146     -1.106385024470612      2.587494208234660
C       1.069476968654987      0.939055431817970      0.448764052823626
H       1.984573681958078     -0.867545518172131      1.335753474395089
H       1.834433765409676      1.374254738864449     -0.243866708211017
H       0.419702486067577      2.413462591702626      1.681108979916801
H      -0.442918153548917      2.307797606150216      0.159796928356310
C      -0.725712883221650     -0.068907416146691     -1.051248890403049
C      -1.758895151212184      0.067601268448074     -0.122905662230094
H      -2.518899636096223      0.919561290053943     -0.171469099664861
H      -2.074097992209044     -0.957646436813952      0.202254317629869
C       0.105520245132563     -1.250658252527093     -1.079803534269143
H      -0.496846913075873      0.645459203941710     -1.838820722287005
O      -0.096486543038621     -2.203044786484841     -0.364787041253618
C       1.053158360758607     -1.418643651620609     -2.366852229227251
H       1.455617589139903     -0.461488137177848     -2.708726723180795
H       0.411319936192285     -1.880951672101686     -3.138593895731482
H       1.954557538665166     -2.032650813716351     -2.054844210873724
22

C      -0.052647041780775      1.765205386891064      0.985729784616883
C      -0.897658605321958      0.786966668818385      1.627895501335135
C      -0.043871584378183     -0.273554861182363      1.931645354734324
H      -1.768386046479950      0.966130117906679      2.301285286404509
C       1.197959441957883     -0.156186650090210      1.263669956826894
H      -0.311534083205165     -1.094858236353186      2.567558316830678
C       1.067709177524143      0.932646200054652      0.435691359029733
H       2.002807834122515     -0.885994950612135      1.332231205669175
H       1.799468962086568      1.356520647195461     -0.231063343878674
H       0.432382204876186      2.424119231397582      1.713237130159605
H      -0.454144559190942      2.317621169338302      0.157238287423658
C      -0.730360211656027     -0.064209166748976     -1.054820177945627
C      -1.765256509050811      0.071093710743907     -0.129452976207883
H      -2.488120898283133      0.893186302793457     -0.177879764669145
H      -2.081853982207272     -0.935572660429612      0.192964574737975
C       0.118150233296431     -1.262853926752847     -1.076841877318379
H      -0.509471149616705      0.644888324137046     -1.845073803600920
O      -0.094702900676010     -2.199712968582955     -0.363190523788133
C       1.061447423715953     -1.418334412564001     -2.365325280554813
H       1.461688445358512     -0.468229903127674     -2.717570395343516
H       0.424978110135770     -1.874012515786517     -3.127053951515888
H       1.932705611101524     -2.013390050053669     -2.051399902672236
