22

C      -0.054358877019910      1.818292036192819      0.978000695886790
C      -0.885130400871850      0.756600608199369      1.646415371213540
C      -0.008396110223220     -0.265458063823011      2.008732505439470
H      -1.784426625062059      0.987833627452589      2.204802340157830
C       1.193718366157370     -0.113870754970751      1.298685222592910
H      -0.262245946600830     -1.114433596881321      2.628290239716101
C       1.120422421893490      1.020418721708359      0.528661857645340
H       1.993221352956530     -0.841390399401481      1.280148592263270
H       1.895057938714940      1.397305068361709     -0.125190678932640
H       0.287890694966570      2.516734345025499      1.757598249308760
H      -0.555458155466170      2.403955993682249      0.209272238163790
C      -0.700163294135400     -0.034993348405441     -1.014957068363840
C      -1.714487045356380      0.033886352619679     -0.075679580887860
H      -2.449619693011539      0.827769164010049     -0.151553653547790
H      -2.075477670016270     -0.904102434507051      0.329249252262580
C       0.037995126778830     -1.276911931387211     -1.164452438837120
H      -0.512837261450720      0.773727152348119     -1.710901131945380
O      -0.108000216134870     -2.202618371901111     -0.379100983467770
C       0.980229405324210     -1.405757663678131     -2.335145058936740
H       1.363078896085740     -0.442711049025371     -2.678088653987070
H       0.434233439777440     -1.866991205201431     -3.164376608054930
H       1.804753652694100     -2.067284250418121     -2.070410707689250
22

C      -0.042968757392393      1.819714453741003      1.011903258806195
C      -0.914958099420321      0.784074656815102      1.686338292483099
C      -0.021762314630391     -0.258116865593153      2.026146541785443
H      -1.775407548555437      0.988377757135512      2.434770146720488
C       1.195299697372048     -0.076201696171739      1.324989733732068
H      -0.180969597510931     -1.059708831823504      2.785585275991560
C       1.123836747253645      0.976912848200364      0.487840779439443
H       2.036887259619717     -0.796694549247774      1.231751138423477
H       1.971171471780303      1.283958223913803     -0.167902148008132
H       0.445883202377303      2.503518490106567      1.783762560395364
H      -0.519435735476951      2.373363430390953      0.182096424789061
C      -0.697366500279356     -0.008601945492721     -1.004124506161500
C      -1.727812566555245      0.052869017602886     -0.062729452023863
H      -2.482809405629073      0.873114312999164     -0.074378111781625
H      -2.097527565311014     -0.932645225859621      0.326112830434677
C       0.026463378175968     -1.247115154503404     -1.144148517078312
H      -0.629900286019709      0.778558810436438     -1.809597511252446
O      -0.093079886214766     -2.210657044926361     -0.393978288550598
C       1.004628810243373     -1.407546403583926     -2.327941004527998
H       1.491294673065395     -0.470922313403437     -2.729901788234058
H       0.392657408196344     -1.930759640768196     -3.124133320570551
H       1.956165430999695     -1.994583966043626     -2.150312710953667
22

C      -0.017503222287019      1.820096187404153      1.029204599299355
C      -0.937349578525350      0.793416158949520      1.730824949001465
C      -0.023185779689624     -0.245554339422893      2.058389698548479
H      -1.663059777927631      0.993768110893118      2.460337781684886
C       1.204986870649086     -0.081469986148503      1.344591610498948
H      -0.110457189088278     -0.966281873074328      2.847355170099370
C       1.106267288671685      0.962821474742730      0.439455151413945
H       2.017490368005853     -0.767438349410676      1.295461195496955
H       1.948136497393226      1.225064677675109     -0.171438594072762
H       0.469121252337427      2.454192177402720      1.752157925538766
H      -0.501668902261446      2.422834287767309      0.261169659662527
C      -0.708496401488901      0.032132898404678     -0.984804077257603
C      -1.742525713833107      0.078042928220242     -0.039661355606134
H      -2.468083295336668      0.867481686986079     -0.038163333518046
H      -2.098936563356743     -0.854325903555232      0.332779883891226
C       0.047037630075603     -1.244940821430196     -1.141996693104782
H      -0.717615705157489      0.713072779629284     -1.800240533082927
O      -0.083531288750998     -2.210897149083682     -0.406061885835175
C       1.034109354999232     -1.395785115352221     -2.328224715752302
H       1.427766417149527     -0.501187464734053     -2.764424009153587
H       0.474456041352594     -1.929650849324436     -3.073376197646633
H       1.879509583105542     -1.989471716175900     -2.084364741340801
22

C       0.004853322494848      1.809928990900018      1.028708708136658
C      -0.908629867343661      0.787420149235866      1.753771565700742
C      -0.000768173432573     -0.213559050503007      2.089873919094550
H      -1.755380749649804      1.085143381277800      2.510402078462732
C       1.197431231481216     -0.104464846506275      1.354398238683409
H      -0.147819431506504     -0.971615075484822      2.898340052060292
C       1.061300013686972      0.954053997956655      0.413944014775774
H       2.063415800325453     -0.829647384656833      1.412861657359679
H       1.912419343230624      1.274959646127293     -0.257596150240413
H       0.485120549639005      2.485517458410712      1.826203535506384
H      -0.520514795585655      2.545371687630936      0.390508948760532
C      -0.722248184270971      0.045536747690264     -0.944438696659135
C      -1.736338603367821      0.108731540870884     -0.012014003104649
H      -2.512483213439145      0.932203973775465     -0.070324974126690
H      -2.140272201934248     -0.881368111604941      0.401088798745826
C       0.075695911107895     -1.241421237716040     -1.161226751359474
H      -0.717618870763649      0.766915529127437     -1.852810266293479
O      -0.083896861856583     -2.204818783842190     -0.412424263257430
C       1.047874251230373     -1.372507342553630     -2.317789027051016
H       1.336318494132726     -0.377002007248567     -2.805330278381339
H       0.529943692255898     -1.983985194944944     -3.152332958415421
H       1.859174842567685     -2.087738449658711     -1.902937777599388
22

C       0.011690120876728      1.834235763145133      1.040987686920203
C      -0.872786410025577      0.795487165109879      1.762137059564993
C       0.037370255042614     -0.194145649206840      2.143316670625434
H      -1.674889557043813      1.108025890950053      2.321279050902099
C       1.193514293845996     -0.120976102912096      1.350435634795471
H      -0.237080664904913     -0.965417117840736      2.834412722752657
C       1.017610853110147      0.922967722074972      0.410813775162242
H       1.983577182486098     -0.802953982305469      1.473549079110762
H       1.717460926654420      1.321285820002541     -0.288228179911285
H       0.474035811054446      2.403107589064446      1.823057667906357
H      -0.526035610393218      2.576844554341076      0.457170118961285
C      -0.707211528853427      0.040242088333642     -0.925683590273876
C      -1.742799326525096      0.126792024846523      0.032521703526305
H      -2.450712973657324      0.895497178288518     -0.136533836494003
H      -2.102878818012297     -0.759788691597769      0.431261822930916
C       0.077119386517664     -1.231994638889389     -1.173483029008770
H      -0.670964792923227      0.734524073090456     -1.695529689453485
O      -0.092105632778664     -2.184970676738521     -0.422357229345317
C       1.057089068421669     -1.358817780332621     -2.314777313027211
H       1.306096449427775     -0.419414883766808     -2.719084757230318
H       0.669188107203360     -1.958437766576948     -3.094474405366830
H       1.800563420503008     -1.939005830080225     -1.864481296525724
22

C      -0.000479220709923      1.850782350512818      1.058834509217613
C      -0.825749854724808      0.821045216823617      1.726976150166854
C       0.070665891316588     -0.183670797234762      2.190769166528020
H      -1.774968149818119      1.179721451863890      2.309506737492186
C       1.180326792663155     -0.128489559591819      1.350256164176050
H      -0.256315483182311     -1.039153808383863      2.846290098556256
C       0.973448324882785      0.887925384337790      0.420440211915483
H       2.039548285365355     -0.855002278162083      1.420361728957706
H       1.647140937129681      1.333930261588722     -0.378652163469767
H       0.575728174005367      2.414140270580266      1.904659770623356
H      -0.529620280937052      2.556707284146375      0.392633261299264
C      -0.665246999889484      0.013839150757572     -0.892774558122976
C      -1.726069918380059      0.141922796661954      0.078048746048858
H      -2.457605100109341      0.960918933799140     -0.179205507645915
H      -2.132356276490624     -0.830112359003034      0.553176294025118
C       0.043351092351730     -1.214255313045161     -1.175093770692601
H      -0.609550036709956      0.871273628054755     -1.692576095053995
O      -0.107028148645168     -2.164030748254839     -0.430426914396120
C       1.044528410214852     -1.338236097352379     -2.296100985579351
H       1.412268021797637     -0.314046439120222     -2.698022074978520
H       0.690814591141475     -2.026561530406959     -3.153172850204000
H       2.026098660081419     -1.816501033517087     -1.859288506586428
22

C       0.010865715249484      1.867530349732097      1.081048156417868
C      -0.838840181377376      0.846678233351137      1.697176008814942
C       0.082632651673499     -0.183993157491527      2.227338455798820
H      -1.649622279148959      1.133176282695776      2.258740752313917
C       1.184236281700611     -0.149042203839473      1.358867895112937
H      -0.173574342489667     -1.026902272240346      2.840096249300831
C       0.941152419170430      0.881402310594375      0.411234746778212
H       2.014779782411993     -0.803603539064831      1.251943434330486
H       1.609138117758330      1.181850013417753     -0.343892061732147
H       0.582399639537248      2.406195232153844      1.802305543543225
H      -0.481027090247871      2.497048474303655      0.333579388520135
C      -0.621792687055299      0.034303861709942     -0.861278967179098
C      -1.694244063107653      0.143068077421443      0.134415861792768
H      -2.394877214621999      0.902729399508549     -0.119035256994956
H      -2.130940862996457     -0.723933729134089      0.533093608692549
C       0.009265075415043     -1.206714120352371     -1.179100161063397
H      -0.554380295943829      0.794936534114550     -1.539406327560490
O      -0.124825834112921     -2.153865089394218     -0.428216511474060
C       1.050367214427608     -1.308771061229690     -2.284605958336517
H       1.394344803900992     -0.389989523464984     -2.678267997657538
H       0.741524824018363     -1.963268704952070     -3.039260284847022
H       1.988770664359418     -1.612315069528863     -1.946433473460714
22

C       0.038238578701902      1.867896985692764      1.060239015774902
C      -0.871258768380888      0.827373749495704      1.671959276533857
C       0.091986819669359     -0.169832630402057      2.213936355278341
H      -1.724554207491038      1.152404127877383      2.410010470640712
C       1.172484673597031     -0.160955391781133      1.369592453319731
H      -0.126101161761031     -1.018207724627779      2.944606681023997
C       0.914569978958315      0.871529480521473      0.397712032253727
H       2.053251690984580     -0.839678998909902      1.148754141447223
H       1.738186567635450      1.083725806515810     -0.365551625257632
H       0.630931469191785      2.510490258181888      1.829433130573055
H      -0.451280912068758      2.529597866970327      0.314398335245847
C      -0.591089779320678      0.071258787825706     -0.791635511805231
C      -1.625666540455539      0.155907550801413      0.205984732485489
H      -2.421981808066466      0.927981336425378     -0.031514902004615
H      -2.188765646493454     -0.795098722139776      0.533099707044018
C       0.002612477288509     -1.204328472766941     -1.184497132121602
H      -0.519832166789852      0.901825081568857     -1.626080976306979
O      -0.144273332005583     -2.154270570755523     -0.418981179857559
C       1.044717738130233     -1.262225972976078     -2.265775553345755
H       1.253289981274250     -0.262031393816201     -2.792878913322629
H       0.716148180749090     -2.024006718189661     -3.069455635666226
H       2.049464288890200     -1.632187035460280     -1.812170900924499
22

C       0.060963876721256      1.880920682228812      1.025774215000676
C      -0.932708248183561      0.791421777566123      1.657833898574471
C       0.095093529584021     -0.163964220455423      2.182629884700590
H      -1.595020801115923      1.130391651279141      2.369343665997022
C       1.159404287452175     -0.167236323425295      1.361352168193459
H      -0.080944480663190     -0.820413428041543      3.013561125208414
C       0.913727557665705      0.843489415724651      0.363134948288941
H       1.970516070870948     -0.853155243000623      1.224404276515833
H       1.741983276683295      1.074157367849584     -0.253782687981752
H       0.573283783776061      2.401655780731733      1.796476757866023
H      -0.444442705419997      2.587619180898394      0.363976764432646
C      -0.536921111340698      0.137319581977191     -0.729056201064779
C      -1.576540694467668      0.178413575660316      0.319278040630152
H      -2.356389002966739      0.879849326675289      0.075109637774538
H      -2.084163699784939     -0.753132072521242      0.458897366611765
C       0.014903551476800     -1.204896020091941     -1.169457758776078
H      -0.557180621087914      0.804908146208712     -1.508268545271209
O      -0.159336047414929     -2.156293669067966     -0.418288054540530
C       1.041641407139129     -1.215656691566088     -2.267019467124233
H       1.062508186853558     -0.294808920424971     -2.807695158385212
H       0.773285302649277     -1.994061452168044     -2.952492122049479
H       1.873879891461204     -1.597715082239555     -1.750163315716628
22

C       0.057793695050197      1.863227516932386      0.995466677101094
C      -0.957482302133289      0.767284736126210      1.621339578876846
C       0.081008262375921     -0.166526237946580      2.155461370338189
H      -1.664463045189423      1.193304917952392      2.440746519694049
C       1.136049332750083     -0.167495510931123      1.340428759221730
H      -0.064180980883609     -0.696581104997264      3.142956010740531
C       0.892270314091552      0.807205397461735      0.302783654078935
H       1.967206103313566     -0.930010286134565      1.382235178425158
H       1.815093982094118      1.165498899657077     -0.266335754440186
H       0.630592152944819      2.334351435091936      1.896019195653125
H      -0.454582611441006      2.618706350253636      0.365594527603504
C      -0.442636811558338      0.182653450625393     -0.643176429513421
C      -1.529721566147506      0.211709917494998      0.436227246941905
H      -2.361003735693018      0.912596946726691      0.146472428877415
H      -1.956159078658965     -0.841573946324205      0.468289976641799
C       0.023397766023490     -1.176985396114032     -1.128726165931124
H      -0.625028360884694      0.922739674077026     -1.553710069214303
O      -0.170400495923227     -2.156560086827490     -0.422854524399158
C       1.005448662397489     -1.184674919718482     -2.260022964527177
H       1.027329054906119     -0.224757975319985     -2.848859932124610
H       0.818426462402359     -2.078790767061249     -2.931091700133274
H       1.965813750809180     -1.496130774439831     -1.676242527133171
22

C       0.041704649989145      1.824938135596027      1.011311050302557
C      -0.935604972144566      0.809198948108690      1.649434449521092
C       0.048996111555631     -0.181945898275486      2.151989959733775
H      -1.639375487066499      1.151057084999503      2.328905112684426
C       1.114577226844588     -0.196306895511084      1.324900558978697
H      -0.024188461918793     -0.581298296243609      3.140048873956336
C       0.841187598510545      0.786246323147807      0.200214452889130
H       1.962070599890672     -0.833799924068659      1.504950484481738
H       1.728049341339205      1.161515715165886     -0.293875989048185
H       0.601952113804167      2.296781602150702      1.780697892176845
H      -0.413355294788396      2.587787265889293      0.380799117451835
C      -0.319012069587206      0.239690656894700     -0.555417501532145
C      -1.503475603597538      0.221393281147344      0.465390086115882
H      -2.341611066859278      0.875216731404609      0.213001059484133
H      -1.807819830727422     -0.798281940967436      0.597459037503799
C       0.032749155645617     -1.130305533695147     -1.079925220767787
H      -0.593060141970014      0.866902910864167     -1.324897940212773
O      -0.179378935662764     -2.159758063684330     -0.431669965853302
C       0.962939327557897     -1.179244478412059     -2.245594806196423
H       1.110173469880494     -0.246360830559545     -2.814219822896885
H       0.845855625938474     -2.050338460746377     -2.875773907108291
H       1.970216324672305     -1.220504289566020     -1.816515434726276
