22

C      -0.054358877019910      1.818292036192819      0.978000695886790
C      -0.885130400871850      0.756600608199369      1.646415371213540
C      -0.008396110223220     -0.265458063823011      2.008732505439470
H      -1.784426625062059      0.987833627452589      2.204802340157830
C       1.193718366157370     -0.113870754970751      1.298685222592910
H      -0.262245946600830     -1.114433596881321      2.628290239716101
C       1.120422421893490      1.020418721708359      0.528661857645340
H       1.993221352956530     -0.841390399401481      1.280148592263270
H       1.895057938714940      1.397305068361709     -0.125190678932640
H       0.287890694966570      2.516734345025499      1.757598249308760
H      -0.555458155466170      2.403955993682249      0.209272238163790
C      -0.700163294135400     -0.034993348405441     -1.014957068363840
C      -1.714487045356380      0.033886352619679     -0.075679580887860
H      -2.449619693011539      0.827769164010049     -0.151553653547790
H      -2.075477670016270     -0.904102434507051      0.329249252262580
C       0.037995126778830     -1.276911931387211     -1.164452438837120
H      -0.512837261450720      0.773727152348119     -1.710901131945380
O      -0.108000216134870     -2.202618371901111     -0.379100983467770
C       0.980229405324210     -1.405757663678131     -2.335145058936740
H       1.363078896085740     -0.442711049025371     -2.678088653987070
H       0.434233439777440     -1.866991205201431     -3.164376608054930
H       1.804753652694100     -2.067284250418121     -2.070410707689250
22

C      -0.050422577222753      1.851363856866600      1.013987484612762
C      -0.924541944772136      0.768291479654301      1.706408014993005
C      -0.055650289252918     -0.287768769623631      2.022273889470112
H      -1.891350205987406      0.934150848271845      2.106263379269191
C       1.148860080321492     -0.130987751237569      1.281044996191332
H      -0.262501594005035     -1.092093931032869      2.690391976999413
C       1.075997880873214      1.030637777019902      0.505850913337218
H       1.992361776391283     -0.797418824284101      1.230144161917405
H       1.891968505360307      1.345096378637802     -0.175715471111919
H       0.374855580135955      2.474660985837713      1.801612142053931
H      -0.564519259127182      2.480557542997150      0.303802183064340
C      -0.683294982081065     -0.016657476693183     -1.071281217282285
C      -1.729624533716722      0.068628983391600     -0.159625858055019
H      -2.466045774589870      0.822000990023586     -0.260297945189584
H      -2.026314211313983     -0.924954338358891      0.312793942256801
C       0.027586400916773     -1.282142395725302     -1.139682806904269
H      -0.643050097747590      0.660782857087208     -1.909234805454966
O      -0.262921056552170     -2.211185522672851     -0.397390912164042
C       0.998225000025788     -1.353440234324457     -2.278992141969892
H       1.099734498718594     -0.352241757608845     -2.722742006492569
H       0.565758001598429     -2.099617610122263     -2.981848098265935
H       1.957687023356386     -1.732392214721468     -2.000349881537570
22

C      -0.089881950304481      1.840364060390803      1.050818556947664
C      -0.902141409550707      0.826883362505662      1.703899293688595
C      -0.067038741756621     -0.242733555368862      2.033008292251053
H      -1.706128427210418      1.088035063374890      2.391529549661085
C       1.113387542990472     -0.132311812904385      1.267913401539823
H      -0.334464066641314     -1.078619183704934      2.684910862559351
C       1.026174459148203      0.978955383886167      0.500894553940701
H       1.849625246963080     -0.955476546507062      1.290512423800586
H       1.806021080647215      1.450683192519755     -0.138689992801467
H       0.259767196094113      2.441529229798408      1.893951752016208
H      -0.564413773182624      2.589306807314482      0.404671220827385
C      -0.734451390400943      0.005170106560414     -1.090780311386292
C      -1.773574684383016      0.075882003437417     -0.235131649025856
H      -2.438336928995838      0.942337371531591     -0.245100384463461
H      -2.162368359423802     -0.847560879980507      0.323139050630568
C      -0.038065279252236     -1.288981184578130     -1.142784015735919
H      -0.442353650706079      0.805025184528922     -1.767877984062694
O      -0.386357592103389     -2.216082469701993     -0.439374795874165
C       1.053823700587074     -1.351282893641473     -2.237981733133291
H       0.991756206249021     -0.495641912273484     -2.975734262253506
H       0.880553545568222     -2.244815434074284     -2.890229235951830
H       2.051207548798129     -1.414456089534180     -1.805109137012655
22

C      -0.070241632159673      1.854200372763435      1.045730122599240
C      -0.922372251011466      0.846488217428055      1.846751026352727
C      -0.112376404040638     -0.220951664635277      2.050526024233286
H      -1.900208631277440      1.096905528672224      2.322777859058399
C       1.071198164320718     -0.146005012027123      1.259221537835570
H      -0.354551421609174     -1.086717187258676      2.694789377090833
C       1.029885368722821      1.025934360823963      0.531026089609612
H       1.889792456696884     -0.888559302625495      1.095301360348088
H       1.744820482195116      1.261588474109332     -0.223293071934478
H       0.489615658903172      2.496125211893649      1.774288119727845
H      -0.643203115067167      2.461895310433625      0.288499927882281
C      -0.785575822874220      0.011945859858482     -1.070206080838066
C      -1.890707084650263      0.128766997350211     -0.280655914329513
H      -2.510611634252914      1.070385342799527     -0.218561693212067
H      -2.305506385024608     -0.807154190932515      0.076405632794881
C      -0.093700651203681     -1.306462526959190     -1.245270654404157
H      -0.402281888386795      0.917633622928705     -1.606943358160252
O      -0.433856317645980     -2.225752194196378     -0.522721257788144
C       1.062671527239768     -1.384891145870052     -2.195905469734432
H       0.961394253224606     -0.586838915771419     -2.951749861590722
H       1.285057141135824     -2.421384480819013     -2.500984816695630
H       1.965754258336607     -1.031508844088898     -1.595509763995455
22

C      -0.109120901367777      1.876114946159416      1.049484838343595
C      -0.849724048177656      0.914045261912193      1.969520311035160
C      -0.162555303863088     -0.266172263119812      2.089676760178469
H      -1.864050224681597      1.068338833805329      2.363120996072165
C       1.055325121727506     -0.139825142432801      1.246298977383762
H      -0.402992495824540     -1.135438053273015      2.701903298735543
C       1.063149730871890      1.038188018846568      0.548594957130946
H       1.775947354395540     -0.930762101063841      1.185383653786900
H       1.757736767876733      1.427637873192354     -0.158293819467798
H       0.203292594290952      2.769310322785928      1.709244986306562
H      -0.685316571643295      2.465524079541248      0.254390758527956
C      -0.853756143239148      0.023994834454654     -1.094692303025917
C      -1.990701054966078      0.148031100310184     -0.372312213880128
H      -2.453590396483444      1.144236290606847     -0.318877296511238
H      -2.401553795117207     -0.636600132700795      0.185889858609583
C      -0.197166652903651     -1.278285125455062     -1.287002374487935
H      -0.456014924721562      0.881984169539331     -1.681177551625494
O      -0.468476021718799     -2.267596521606762     -0.624459610830877
C       1.065304052134566     -1.382243196210517     -2.117247582074797
H       1.086300089498832     -1.044236412729633     -3.157190071274219
H       1.449803756174669     -2.390719606660961     -2.204979241149305
H       1.744799734564937     -0.755500461635548     -1.430833865009589
22

C      -0.132966976781197      1.884880736772593      1.118174831478928
C      -0.825006668289722      0.955009801937876      2.022938458297590
C      -0.131590386273252     -0.213498433782555      2.057405563475621
H      -1.580537652756747      1.285855591421830      2.702578019084001
C       1.034359480224813     -0.128180652042510      1.252200384249400
H      -0.525144382469374     -1.084828961092429      2.545762086696560
C       1.028652386226181      1.076394079600718      0.671142602889687
H       1.734204147458339     -0.907335392566677      1.149458812017537
H       1.854310821781825      1.402143595008568      0.017018454328060
H       0.243371259067008      2.827261900767254      1.642360069179138
H      -0.842332024789824      2.106766183777448      0.293906419995566
C      -0.982987615320181      0.009725786860266     -1.224162229598462
C      -2.038854104201413      0.180739279620480     -0.462988918273804
H      -2.661101112390977      1.041341170364277     -0.448559568100265
H      -2.396873641021433     -0.698933115288819      0.094880744717782
C      -0.213998394829209     -1.309631102345746     -1.285754643476216
H      -0.548303301764949      0.828079786720853     -1.776080181955077
O      -0.556803358923253     -2.321957387054252     -0.710557612500228
C       1.078574635758422     -1.338375885726483     -2.039331941484971
H       0.906526764300939     -1.186663499050448     -3.106627797495579
H       1.436230450486675     -2.314280418254577     -1.694550366181206
H       1.886151204218804     -0.594961173695262     -1.769790537731861
22

C      -0.100617544993459      1.935738464146036      1.194946363999773
C      -0.826069567972922      0.994730675003077      2.140673872033181
C      -0.193342766047301     -0.197852556165977      2.111848262621964
H      -1.756080923843509      1.170428867833079      2.675252038633765
C       1.034516990189963     -0.128316943251458      1.242257239153228
H      -0.385647490817078     -1.115339485593896      2.665146280087089
C       1.088615691926619      1.153280746600363      0.711102646691360
H       1.745585331964399     -0.936713071524955      0.987868472354511
H       1.861788576670443      1.635478804208403      0.029235387186278
H       0.063764551361634      2.973248324467953      1.546196473857069
H      -0.685181050435207      2.133759701878495      0.302280179472565
C      -1.038084472361351     -0.057228553701156     -1.372826101415334
C      -2.149297691953683      0.130931710878070     -0.584679255923854
H      -2.747678634626197      1.036498273431688     -0.523947006499458
H      -2.467747463070723     -0.767569288502746      0.036035450374953
C      -0.225373161375727     -1.312987073099250     -1.220356022240428
H      -0.665905401829376      0.683360082033475     -2.057046916583339
O      -0.702941670702091     -2.329616478360306     -0.789544185979518
C       1.114696444309391     -1.305519679843441     -1.966103514964476
H       0.769165548204155     -1.433939194068510     -3.013972752052652
H       1.799132175358074     -2.189901380662876     -1.891676226631313
H       1.615485096642550     -0.364895150083002     -1.846344927282523
22

C      -0.086020140547431      1.982633226952795      1.254757604072028
C      -0.791157108373172      1.011391908347556      2.175699405601313
C      -0.133474372669691     -0.183621695625379      2.152988182704138
H      -1.831785115663095      1.233737293119484      2.535202984227530
C       0.957246533824079     -0.024819284942325      1.242744614233473
H      -0.499804416047622     -1.068495170895690      2.699710466935939
C       1.122322503532006      1.201319717989950      0.803236512227832
H       1.651468516020837     -0.904295618756599      1.099210801297436
H       1.883194392819246      1.490539814863291      0.085508528161796
H       0.119968170490535      2.943985178712711      1.670426894629458
H      -0.752613186696398      2.013910857436060      0.390177975074885
C      -1.079850858561495     -0.121486462083294     -1.420020303337423
C      -2.204475111704864      0.027262288467230     -0.764445002851230
H      -2.782038999983766      0.984438679003722     -0.908642123676343
H      -2.539494328684299     -0.695829048319630     -0.021444836574438
C      -0.278084365633598     -1.363268464824533     -1.278440146765456
H      -0.791074699051469      0.674870274464524     -2.112934142388254
O      -0.834612321953516     -2.340433924731010     -0.811920012547864
C       1.089872810185711     -1.236319659320256     -1.916043811394901
H       0.885410660570085     -1.370239467402290     -3.001055166688829
H       1.822556889355305     -1.904734425441621     -1.428526562437911
H       1.463189785731456     -0.242380015982245     -1.894757060999538
22

C      -0.099567912085134      2.009070502684592      1.289507787499840
C      -0.784279877189073      1.057638670137568      2.176739732073197
C      -0.149413851492128     -0.124550644701030      2.197190332459475
H      -1.625186516196899      1.286325712877206      2.833197096346762
C       1.033723270513386     -0.038387562895432      1.331646375229231
H      -0.431434870972226     -1.090105250124427      2.619948204587656
C       1.106250750168626      1.255097172604444      0.858816713134441
H       1.749617878953761     -0.834850241930713      1.044831911890035
H       1.910393140267224      1.712793160486228      0.310798600025959
H       0.063333508611480      3.012290938453330      1.655069195084796
H      -0.767194534490266      2.222849703025477      0.432172063620473
C      -1.126405737964476     -0.141356878242896     -1.485651140894644
C      -2.319727111484229     -0.022940723451080     -0.911291939977746
H      -3.048224757442947      0.781635337200351     -1.215092706401748
H      -2.711394196491059     -0.786062295035787     -0.278335289460039
C      -0.394756711707041     -1.387276640298831     -1.393010895222395
H      -0.584225192388315      0.693088726817959     -2.010386331471628
O      -0.859470447543496     -2.365789785673118     -0.826442371335597
C       1.030949139548878     -1.209659579610707     -1.850766781328433
H       1.238675009983698     -1.602962290468236     -2.839374827885849
H       1.691285404234246     -1.849145834720377     -1.293809284053107
H       1.320749156497801     -0.166612413908331     -1.697959202565415
22

C      -0.124138614041510      2.064518003804895      1.302324099783164
C      -0.821594335636969      1.079764015926425      2.277257605830964
C      -0.149842775301339     -0.096139559462297      2.187028931403929
H      -1.693353915106198      1.330825362678636      2.862612593739185
C       1.108552814928323      0.028432410776318      1.394865121123907
H      -0.446563252695294     -0.920089538295802      2.818018921011522
C       1.124771769493961      1.284424669820637      0.883038023167894
H       1.817395830979054     -0.761662766290954      1.320586739061659
H       1.892114939174605      1.713782559200854      0.247965845380570
H       0.179919478998083      3.014252895741626      1.809451121854681
H      -0.640186807695243      2.252644604234511      0.333048612854600
C      -1.237823582240008     -0.103768187038875     -1.554142184572664
C      -2.517352893003097     -0.055061013321851     -1.114679345216218
H      -3.043815846542921      0.883839865002047     -1.054919188632276
H      -2.892970516629368     -0.995412145036821     -0.664663571951722
C      -0.426997625779104     -1.400355658135511     -1.419177593668442
H      -0.802019471906630      0.811727091460187     -2.028035418402791
O      -0.826741921098474     -2.398213425341312     -0.884505025023871
C       1.020467626587638     -1.304914236729543     -1.743443015823845
H       1.219793625957573     -1.486759299971453     -2.801913905900928
H       1.524734475515426     -1.882955817518603     -0.987211230293622
H       1.274653053712528     -0.207795686393249     -1.598281146761797
22

C      -0.070160260498522      2.045308781892075      1.357158579135628
C      -0.790142551793590      1.129473509767865      2.230646914080118
C      -0.124945387517927     -0.055679094920662      2.257532573366104
H      -1.740706938498313      1.227735686904656      2.733970046006060
C       1.059537831292486      0.133859669394413      1.481330454913762
H      -0.328070522651068     -1.007880078694005      2.731837901182746
C       1.128443715705182      1.327823803009508      0.915688153869582
H       1.852952913721435     -0.573332998273129      1.445610246046309
H       1.901997586599964      1.681104160101793      0.200587028372859
H       0.126291995301644      3.064856313577479      1.845416380208505
H      -0.838924694174169      2.370019335866413      0.611014963307874
C      -1.354664712226545     -0.149936648152872     -1.658269932085339
C      -2.644903769304733     -0.131890055878728     -1.291383511823241
H      -3.158116366195208      0.765520013302882     -1.094783596105396
H      -3.269466455473351     -1.043054178251757     -1.179738904576082
C      -0.461319158019100     -1.332756861582656     -1.359929802068801
H      -0.847372851024207      0.764075722845406     -1.971931017508873
O      -0.885097005300924     -2.394616677314034     -0.960101785608537
C       1.035813177966518     -1.322274733909629     -1.633261636302890
H       1.254387693746888     -1.720738530366121     -2.651484310797643
H       1.507514939748358     -2.171762127383484     -1.057696150590935
H       1.607160832257554     -0.369701271769715     -1.399261009165258
