22

C      -0.054358877019910      1.818292036192819      0.978000695886790
C      -0.885130400871850      0.756600608199369      1.646415371213540
C      -0.008396110223220     -0.265458063823011      2.008732505439470
H      -1.784426625062059      0.987833627452589      2.204802340157830
C       1.193718366157370     -0.113870754970751      1.298685222592910
H      -0.262245946600830     -1.114433596881321      2.628290239716101
C       1.120422421893490      1.020418721708359      0.528661857645340
H       1.993221352956530     -0.841390399401481      1.280148592263270
H       1.895057938714940      1.397305068361709     -0.125190678932640
H       0.287890694966570      2.516734345025499      1.757598249308760
H      -0.555458155466170      2.403955993682249      0.209272238163790
C      -0.700163294135400     -0.034993348405441     -1.014957068363840
C      -1.714487045356380      0.033886352619679     -0.075679580887860
H      -2.449619693011539      0.827769164010049     -0.151553653547790
H      -2.075477670016270     -0.904102434507051      0.329249252262580
C       0.037995126778830     -1.276911931387211     -1.164452438837120
H      -0.512837261450720      0.773727152348119     -1.710901131945380
O      -0.108000216134870     -2.202618371901111     -0.379100983467770
C       0.980229405324210     -1.405757663678131     -2.335145058936740
H       1.363078896085740     -0.442711049025371     -2.678088653987070
H       0.434233439777440     -1.866991205201431     -3.164376608054930
H       1.804753652694100     -2.067284250418121     -2.070410707689250
22

C      -0.042205975567310      1.825643324689478      0.983005226379232
C      -0.886911022283961      0.771161344896801      1.637906627152437
C      -0.014582555505108     -0.282219240071970      2.024852972552530
H      -1.762265804752341      1.023590060966618      2.233850587364984
C       1.204313641438247     -0.081294888874617      1.300394629972550
H      -0.242483990584326     -1.077511025814540      2.659838871988131
C       1.110097286095863      1.016549641838284      0.498065968459165
H       2.038112340412188     -0.797915519326442      1.262836725537222
H       2.072972762674013      1.443751211190558     -0.188836642902665
H       0.346948831016331      2.450535345880491      1.739459752328009
H      -0.589659627065376      2.438060728812305      0.157347202776402
C      -0.698308723128982     -0.037296490197587     -1.020460291794295
C      -1.718511321629687      0.010978998321724     -0.073646422176099
H      -2.419564642286914      0.856749559535209     -0.221988874552394
H      -2.111929379390286     -0.892500581055442      0.373224480968121
C       0.027076887227891     -1.289534273214624     -1.152784711554279
H      -0.397613802548351      0.807479849251961     -1.709376123882292
O      -0.115130112518669     -2.198739572982771     -0.355579812264762
C       0.984099975662009     -1.428495216566152     -2.326536149703102
H       1.355187072101080     -0.506706682911901     -2.785646808133721
H       0.416369383639264     -1.989804857643454     -3.250279189330463
H       1.843011239837183     -2.048479344895422     -2.042461012897802
22

C      -0.038264633347910      1.832789610202058      0.977287683893556
C      -0.889538498500238      0.782682873650579      1.629538580089143
C      -0.015298621112936     -0.286882685419479      2.031751473867554
H      -1.748495807704403      1.068629045427666      2.267156343707029
C       1.213720751402535     -0.058893359811818      1.305429840298294
H      -0.240602986620234     -1.119769258563917      2.737548038702523
C       1.115208936500551      1.021118764037535      0.454378402734493
H       2.069012841206462     -0.750762115930644      1.261209323152908
H       2.054727570696148      1.413782313297924     -0.133354971564401
H       0.423533795982074      2.461765424438000      1.789146283353696
H      -0.563407974242292      2.425620443473470      0.198485854235894
C      -0.692674665812930     -0.037836202986071     -1.026798175866236
C      -1.721340198560950     -0.002895408616707     -0.070387847660105
H      -2.394008448186554      0.862177303404513     -0.273865692801462
H      -2.150009429862960     -0.900235190053707      0.413118356103083
C       0.018178918336820     -1.300450993970883     -1.145726282868258
H      -0.317673593945439      0.799474844253600     -1.674104104800648
O      -0.122560682734350     -2.196615819709528     -0.331525378950211
C       0.981244014707507     -1.459906337837505     -2.332636065932296
H       1.341651260763687     -0.553786055680028     -2.878556594914537
H       0.481661892493235     -2.021383093237906     -3.175321432715324
H       1.869568856671007     -2.038883929703497     -2.011306526179053
22

C      -0.033521695961905      1.840133794197902      0.968614399366468
C      -0.892388376542734      0.789542601710420      1.623472271954003
C      -0.010354561552288     -0.285623219480858      2.032383713983927
H      -1.723701017245375      1.104254897518703      2.284068108573479
C       1.222468643708201     -0.044874365082327      1.312575933437899
H      -0.233780232276481     -1.145764217428441      2.773068541689357
C       1.126810244024586      1.029121504316181      0.410288839448042
H       2.072494768276274     -0.703254214222702      1.277014094178587
H       1.929702776705050      1.355573024273951     -0.032518608605800
H       0.469371048606559      2.469072793760027      1.816498477894085
H      -0.522898168894237      2.419291311124728      0.272406388883274
C      -0.683764398984754     -0.041880468197247     -1.030226168655522
C      -1.722533528330382     -0.005132710602147     -0.068515022926126
H      -2.379480390297905      0.829955785874370     -0.292982069846098
H      -2.166544901930420     -0.897557064969103      0.430018503682711
C       0.012995340452666     -1.308728965745075     -1.144326866825371
H      -0.293431085215449      0.768194624965927     -1.610666255235838
O      -0.130487828829533     -2.193911262186087     -0.308235783035765
C       0.977280265428418     -1.493131209508065     -2.342821755361594
H       1.316720188583753     -0.599215923391703     -2.924640404698389
H       0.545998679663453     -2.057790705523817     -3.050828207553973
H       1.868924657381955     -2.034309401096863     -1.975940405353687
22

C      -0.020128997959834      1.843078508722873      0.966860088125396
C      -0.893706655691368      0.792462637828253      1.620358408562506
C      -0.001425266064076     -0.279497883539961      2.029732003627197
H      -1.697918600638046      1.123674019241559      2.282373979508632
C       1.225932423493029     -0.035424473163503      1.321943008522053
H      -0.212116377031035     -1.095189843928830      2.719089006633139
C       1.118352765403102      1.026602429063988      0.386125037300013
H       2.085294889130554     -0.680905467382292      1.311212136563700
H       1.989893750126724      1.400697508588779     -0.071468891811611
H       0.449548762089808      2.430325612360351      1.773684919038750
H      -0.538623452282338      2.504581367748329      0.272489561547253
C      -0.675600445011375     -0.054324794045179     -1.024082214385777
C      -1.718663324642363      0.001524555248900     -0.068442392462713
H      -2.410883548110072      0.795605262151940     -0.291816418176552
H      -2.147645061713669     -0.873383178137856      0.413771831409547
C       0.011334591623177     -1.317557319420540     -1.147335997545706
H      -0.306556569496484      0.781996628180485     -1.584652039298576
O      -0.136856911186150     -2.190716998909616     -0.285834530925981
C       0.980652838868633     -1.519219727310088     -2.342754685503950
H       1.278975092622308     -0.638128463522914     -2.913994434351698
H       0.517314840858487     -2.213695527822716     -3.038127697127160
H       1.861246903209604     -2.029211745889417     -1.936353552655476
22

C      -0.005797010421786      1.842404488929571      0.962404739388912
C      -0.890379657022178      0.792815405438415      1.617571676186396
C       0.011624501423739     -0.261243998617781      2.019362181766517
H      -1.684484956722221      1.138412409588146      2.280339428927169
C       1.225604667948965     -0.029734394556809      1.330444363726669
H      -0.198712755271843     -1.054776212917596      2.666780463236026
C       1.100946940394218      1.016898876241864      0.373804236824760
H       2.107777609438990     -0.683959234146891      1.365180039876815
H       2.112355216421746      1.496501810661717     -0.174123886721752
H       0.414998985497532      2.409743383424900      1.746683734597922
H      -0.571444837720056      2.598557992560587      0.269597910347427
C      -0.670496240084500     -0.071159599256513     -1.009474298153370
C      -1.708940478203065      0.015274023438068     -0.073409747763520
H      -2.481445616796384      0.779211618869369     -0.273030971947662
H      -2.113522483466610     -0.871723485569495      0.387057931870447
C       0.014205894079281     -1.329923622540633     -1.151572436305669
H      -0.349606628959725      0.827669611702829     -1.597601194679598
O      -0.143031531332313     -2.186488432318401     -0.268349639715356
C       0.983071555915507     -1.546434746248288     -2.334347098619645
H       1.236064799350106     -0.653696311671225     -2.881430506278874
H       0.476097722519668     -2.390096446597678     -3.039015214198248
H       1.860932626287793     -2.035605552479495     -1.899099456615678
22

C      -0.001642319725085      1.843439276970423      0.946850052094871
C      -0.883082359421350      0.790390334992977      1.612646993123226
C       0.026520551933360     -0.228491672475941      2.000559985403244
H      -1.694954977555324      1.140507465575569      2.277692012686952
C       1.228689754345839     -0.026145120042586      1.334766820532515
H      -0.200462956445566     -1.077111848165502      2.670168522602573
C       1.097590091713523      1.011120741277783      0.362780471725317
H       2.113517303248388     -0.679853925631521      1.425400258153519
H       2.051393500664728      1.509108179716825     -0.196769037945377
H       0.418073262352527      2.450556189639517      1.793823005183169
H      -0.546418594952370      2.599162800679807      0.329307365160041
C      -0.667558289632339     -0.082709384343773     -0.994162766523657
C      -1.698992316053958      0.035062271061578     -0.080328189716131
H      -2.540789518023151      0.760378443606216     -0.247442550329465
H      -2.073175864198240     -0.904982285111921      0.370370777889016
C       0.019619676090715     -1.345933871120053     -1.152971152807079
H      -0.416147962614175      0.824557240771001     -1.620242085344533
O      -0.148032926072965     -2.181956545826769     -0.256647908064274
C       0.973007924428390     -1.586338742966434     -2.327153421129117
H       1.200245153142485     -0.650865041125116     -2.863915111193746
H       0.521966851356055     -2.433049859183274     -2.939160404035226
H       1.878686978687853     -2.042770542585924     -1.861453267678074
22

C      -0.002474733816187      1.848794031733952      0.931867843204917
C      -0.873586335640757      0.789222008484169      1.602942653067694
C       0.039692730838628     -0.195073255518735      1.984542463195635
H      -1.709411911604318      1.123504310345285      2.259379386897974
C       1.239146929006464     -0.024049332082423      1.333660619041541
H      -0.199049889407506     -1.078417850897248      2.661351578813938
C       1.104599899416038      1.009177701936185      0.355004029169232
H       2.097847397640721     -0.656157086080766      1.476254930362027
H       1.840302395763910      1.445513521533292     -0.161435006883561
H       0.423041689245505      2.486572549387638      1.827434086967340
H      -0.507631598629994      2.565321190395179      0.384378029680992
C      -0.662768058234754     -0.085782936095292     -0.984496434031741
C      -1.692337118816724      0.054185364049664     -0.082367004642055
H      -2.550384339468744      0.737872387152096     -0.215919499683267
H      -2.028459887813385     -0.918381110033659      0.352575783905585
C       0.024559328982860     -1.363168637613952     -1.148849761147472
H      -0.499341393552057      0.752765774719671     -1.647137551850048
O      -0.151510788166077     -2.178849123310649     -0.250041841880770
C       0.958376152073749     -1.632318576139088     -2.312760578868484
H       1.161475614631638     -0.663628892138779     -2.858056757628352
H       0.597557396567560     -2.420096412444130     -2.829972505733040
H       1.892903149440389     -2.035091832023110     -1.840499070776542
22

C       0.002416294673877      1.852867875758437      0.930303832783171
C      -0.863002179579591      0.793792152681028      1.591954470163136
C       0.049311630991859     -0.171202082571958      1.977193286022553
H      -1.718774416938934      1.082733851869398      2.219407905142347
C       1.253972487914373     -0.016445784954202      1.325172335812900
H      -0.178845600893818     -1.021696989023777      2.605490505115013
C       1.097058422532720      1.001832653411248      0.364057847446602
H       2.105237217371547     -0.640096743780029      1.521444533983408
H       1.773706216400204      1.443294230920724     -0.240898258540562
H       0.406397935080724      2.456388740558902      1.785813776941899
H      -0.525813638221489      2.594815541155484      0.339760404621464
C      -0.655566718038389     -0.083462071332205     -0.979429348377031
C      -1.692418601469502      0.064937754762480     -0.078795539392622
H      -2.520130073399286      0.730732472336466     -0.192915331821949
H      -1.994090211466081     -0.900319949728740      0.328549509229607
C       0.027348571486246     -1.376744894897496     -1.138047065645596
H      -0.563379004204926      0.675002434934158     -1.713757816863015
O      -0.154746507910174     -2.178584033800850     -0.247458811951741
C       0.948261842530946     -1.667687109009242     -2.283482665786930
H       1.120045913032951     -0.733945149056178     -2.856274042330923
H       0.612689605686137     -2.518771876320392     -2.841698358444314
H       1.902240661998139     -2.010215091759306     -1.836831062312870
22

C       0.004219571394817      1.858564734527157      0.932687694901814
C      -0.856673249603621      0.802865962994432      1.576659350325257
C       0.060363777117762     -0.154147742811402      1.973553346052678
H      -1.732918970353715      1.041491900715261      2.177614637666075
C       1.272323161234812     -0.005960641095642      1.309479131572078
H      -0.166625431596296     -0.979845851590253      2.571020017925232
C       1.077569239833598      0.990440142418263      0.383673498187138
H       2.146007854680008     -0.640744273793901      1.539962360713411
H       1.838415239231203      1.485489571924683     -0.423982505376209
H       0.399626770046632      2.421813245763417      1.732089910989367
H      -0.542550335656689      2.620563519025241      0.250059935258658
C      -0.645653884889914     -0.081745273233124     -0.977256302085754
C      -1.691497711881278      0.069984739582274     -0.067816313116437
H      -2.503685539811728      0.779124741652165     -0.186709081028887
H      -1.994177122687480     -0.879802096828141      0.328981250793305
C       0.024506358887080     -1.383879816875203     -1.122133959930683
H      -0.583757863458999      0.626337130843929     -1.827077398085454
O      -0.157044633162870     -2.184829728791326     -0.243775980401486
C       0.941012694055332     -1.696376620826500     -2.249774297692521
H       1.084062871804424     -0.828616002270770     -2.872646933938138
H       0.603869868941531     -2.641256369385253     -2.895670073912488
H       1.915155510797567     -1.978724193955948     -1.838857909214147
22

C      -0.004851490531723      1.866391371280746      0.926580520876518
C      -0.856847372210855      0.814328234116065      1.558143859709041
C       0.074380739527196     -0.141396129742382      1.969684184291832
H      -1.764200559399510      1.016388673226123      2.146396551876248
C       1.294913069125915      0.003063798131743      1.293274573291769
H      -0.165889022854149     -1.010815563699131      2.598883050968313
C       1.069862223393379      0.988786398740705      0.388449891869788
H       2.172376627039446     -0.629648903768870      1.508558834143455
H       1.799700737301293      1.417701110474049     -0.483266851875573
H       0.433145074770632      2.463293479660563      1.750798067436492
H      -0.500421296052397      2.553326178909038      0.197559607476408
C      -0.633878386594734     -0.076816207029152     -0.982820585803389
C      -1.686877351114423      0.074989786594337     -0.050577969981507
H      -2.476324222568894      0.855607354834633     -0.194165836312064
H      -2.030899639776374     -0.885248018003823      0.360875851795408
C       0.017730811921061     -1.383364078525879     -1.105834355689342
H      -0.574585077268805      0.571079397276616     -1.913929441413753
O      -0.159303623172247     -2.197401156263503     -0.236149244923011
C       0.930318994460484     -1.732375378956035     -2.223742852370012
H       1.053548308565607     -0.906645801944880     -2.920440618609637
H       0.631431480380063     -2.644517506929355     -2.854116291927531
H       1.938880119392206     -1.958455904886114     -1.833767642866245
22

C      -0.018475187848789      1.878861403412331      0.917658729024624
C      -0.862350918775132      0.826046002280059      1.537772374314931
C       0.089359852503190     -0.136861440759119      1.971901292257616
H      -1.787740901781889      1.005117530071551      2.112233934782738
C       1.315787835745801      0.009693750983436      1.280774034278784
H      -0.157612207901482     -1.027109535207034      2.622868374489790
C       1.076274169326276      0.997485165551027      0.376574181132983
H       2.182767651341040     -0.614147556453462      1.432852965356821
H       1.656543584491755      1.258286060414421     -0.412325294581665
H       0.461184211745338      2.526868427744357      1.767654360642098
H      -0.441244669515279      2.458051970845374      0.163482506203810
C      -0.623104633795112     -0.068689432400853     -0.994088438944420
C      -1.681166236146293      0.081102153554796     -0.031920205482729
H      -2.407321333390994      0.901344973894812     -0.205171806130401
H      -2.089580695719198     -0.875564811306317      0.396937640804722
C       0.009719600237686     -1.378801103210441     -1.092051070349861
H      -0.559124207371645      0.497511510332745     -1.926837804857105
O      -0.162179784318193     -2.216442731635100     -0.225097757816719
C       0.922521773442574     -1.769238038122618     -2.205353826615293
H       1.031554600953206     -0.958913856617066     -2.976992271780782
H       0.665016917431783     -2.597453001359999     -2.742429126747108
H       1.952385465755225     -1.952013843758723     -1.813150565428115
