22

C      -0.054358877019910      1.818292036192819      0.978000695886790
C      -0.885130400871850      0.756600608199369      1.646415371213540
C      -0.008396110223220     -0.265458063823011      2.008732505439470
H      -1.784426625062059      0.987833627452589      2.204802340157830
C       1.193718366157370     -0.113870754970751      1.298685222592910
H      -0.262245946600830     -1.114433596881321      2.628290239716101
C       1.120422421893490      1.020418721708359      0.528661857645340
H       1.993221352956530     -0.841390399401481      1.280148592263270
H       1.895057938714940      1.397305068361709     -0.125190678932640
H       0.287890694966570      2.516734345025499      1.757598249308760
H      -0.555458155466170      2.403955993682249      0.209272238163790
C      -0.700163294135400     -0.034993348405441     -1.014957068363840
C      -1.714487045356380      0.033886352619679     -0.075679580887860
H      -2.449619693011539      0.827769164010049     -0.151553653547790
H      -2.075477670016270     -0.904102434507051      0.329249252262580
C       0.037995126778830     -1.276911931387211     -1.164452438837120
H      -0.512837261450720      0.773727152348119     -1.710901131945380
O      -0.108000216134870     -2.202618371901111     -0.379100983467770
C       0.980229405324210     -1.405757663678131     -2.335145058936740
H       1.363078896085740     -0.442711049025371     -2.678088653987070
H       0.434233439777440     -1.866991205201431     -3.164376608054930
H       1.804753652694100     -2.067284250418121     -2.070410707689250
22

C      -0.013920342776423      1.799448247668518      0.993077210167758
C      -0.883959145851705      0.779918347489598      1.607997475690125
C       0.015051169786588     -0.244348715300604      2.024262451935763
H      -1.782821724487814      1.061594897595068      2.191139791639857
C       1.222071634014891     -0.082471746425588      1.324527296031107
H      -0.369500337758548     -1.148511031574596      2.560978013824463
C       1.130843030822912      1.047318241592511      0.549021931086181
H       1.911814979334873     -0.922635698809960      1.171054626393156
H       1.845483265429952      1.482428358844382     -0.176217573854090
H       0.202275095980669      2.589685224669151      1.746970141215251
H      -0.517191318121998      2.423339535098049      0.236811207512413
C      -0.707405785565975     -0.041309555461177     -1.004734776618125
C      -1.681726500350536      0.038159937335571     -0.069426442282818
H      -2.325655770201177      0.923953694026465      0.048633728902503
H      -2.024450811588843     -0.942713092001180      0.290962601510331
C       0.043303359478541     -1.216116296546317     -1.132467034591489
H      -0.576690921629941      0.760720634615355     -1.816041206273249
O      -0.062421417169072     -2.184776652767645     -0.403203209633626
C       0.988086021828552     -1.356528849241650     -2.308653515204431
H       1.536072599778890     -0.430484637549462     -2.631759133036188
H       0.443021694562091     -1.897349024887791     -3.103807488522566
H       1.764180482805166     -2.076534687168082     -1.940677455001811
22

C       0.000322172654071      1.817141082148534      1.002761209463632
C      -0.876567841592139      0.788325329833244      1.593650755474430
C       0.017048996208792     -0.220503374981554      2.036137111140515
H      -1.749184371137744      1.105690803747585      2.138001900527597
C       1.249951617125699     -0.070542559449690      1.345781632688343
H      -0.334100571258687     -1.113641956730413      2.505125789126623
C       1.155288986537233      1.071482276240848      0.558457241848218
H       1.893701549829604     -0.953799572068099      1.113941543556336
H       1.805197247174369      1.483441922548444     -0.175667620263975
H       0.216970750095193      2.588675215904094      1.794600836574136
H      -0.442627335950746      2.431609007963991      0.201458825240124
C      -0.712436063078798     -0.009881899801307     -1.023179503467520
C      -1.665332132863276      0.049295188478241     -0.034784837130734
H      -2.253142307871089      0.941847476117397      0.139114596598080
H      -2.012779433645672     -0.952704838678776      0.287848255319171
C       0.066864799665896     -1.178277296351379     -1.123386358214334
H      -0.639989633808598      0.650329817493483     -1.803731424539627
O      -0.022287696467354     -2.167918138274216     -0.412513183020963
C       1.007745314543790     -1.314716354005842     -2.276681511259723
H       1.603514361817956     -0.484955391489562     -2.597710068821744
H       0.487963856585988     -1.860202350046156     -3.099573581554880
H       1.695823562178326     -2.055697264127897     -1.868989005137815
22

C       0.003086266432202      1.872388231852247      1.009103343254084
C      -0.857614123019601      0.782133633940629      1.597507311186115
C       0.017793387799879     -0.192850111907542      2.030463124238005
H      -1.797537174732011      1.125753472516870      2.109415395076880
C       1.266871736969571     -0.066921645687056      1.351665940541100
H      -0.244151450067429     -1.133215915876240      2.556654605014503
C       1.188594826849858      1.082097970557634      0.570945433986359
H       1.911418402659250     -0.887476296187123      1.154075451580459
H       1.898354725466805      1.474094200198680     -0.199346232132127
H       0.307970959964698      2.499907581259742      1.837698822081488
H      -0.389451115578457      2.438999323332782      0.164142597641400
C      -0.724988950790237      0.025059355246511     -1.028370915187901
C      -1.652981387512362      0.060246218166187      0.021422793498450
H      -2.321689843665706      0.927932903422919      0.094297137551097
H      -2.043420394345634     -0.885984405827395      0.343497692371104
C       0.098957517028838     -1.166028823831487     -1.136616365467730
H      -0.680952402173056      0.786773107167521     -1.947361144054687
O       0.010504244821343     -2.150548288957276     -0.413320951346012
C       1.032690328661817     -1.293368661204207     -2.242927398442458
H       1.633453010694091     -0.411027658183085     -2.616184582836538
H       0.561859006286076     -1.714197914909748     -3.105612787416255
H       1.731299596401424     -2.058883524833704     -1.853882248194727
22

C       0.010606926511508      1.919209066218006      1.003171764499971
C      -0.860425748352855      0.793226692430481      1.601165419967055
C       0.041623283626835     -0.190789355666529      2.027169400633636
H      -1.767048150794808      1.045759027877202      2.101859982096657
C       1.261954909499762     -0.052029698065791      1.347452162175304
H      -0.159025035404618     -1.055390384791039      2.636827247413569
C       1.227259014254173      1.089465013158739      0.578691491281872
H       2.050437377634081     -0.873684310284410      1.249902846694376
H       1.983102978965422      1.429506166743157     -0.109368347355350
H       0.402426189009935      2.502370531347440      1.899216790798077
H      -0.412584489563369      2.518739829639736      0.176882405199337
C      -0.738124117703581      0.071482724680395     -1.040227426845430
C      -1.640109893422820      0.087299811719643      0.077188553265404
H      -2.442324056287518      0.853481506566514     -0.046823898539519
H      -2.086040303804436     -0.888594059729389      0.445901338652824
C       0.115061159045906     -1.161663538924216     -1.152286660121485
H      -0.719968870720171      0.773448231732363     -1.806153742081108
O       0.038160559615318     -2.128118387017100     -0.404741588203162
C       1.093830663156171     -1.273140781328308     -2.225208612320733
H       1.571629115124954     -0.352008235675382     -2.547499930908144
H       0.557667626932376     -1.599918127926929     -3.197741789502811
H       1.821100954136664     -2.039271998761594     -1.912038085564029
22

C       0.035593364171203      1.949390111254130      1.002044092671114
C      -0.865449408377287      0.813994837258007      1.583577602857843
C       0.079918681355116     -0.200529048117569      2.030947879226496
H      -1.776633819001955      0.968001380282083      2.228065402093476
C       1.263383130936885     -0.046545086891666      1.337244639144441
H      -0.147423574925741     -1.003420678104626      2.755233714334623
C       1.249389122263324      1.103388728049439      0.579767346051964
H       2.077084593778857     -0.705351806201699      1.395093779882205
H       2.113118080461294      1.416383608032135     -0.031279300042464
H       0.387259330702574      2.549195324774223      1.839777765402645
H      -0.452418774269100      2.635502596180042      0.290410918689453
C      -0.740787034340023      0.079156507397169     -1.018680572671985
C      -1.631595997475614      0.120364240366162      0.124378730724519
H      -2.513339388746599      0.731224415868034     -0.151801308830327
H      -2.019263236591419     -0.807048927334218      0.478047947152907
C       0.110576768323515     -1.144560327680591     -1.161156742405241
H      -0.752181224384744      0.926711811165967     -1.792937471240009
O       0.056459000253505     -2.103925452963689     -0.389275139267194
C       1.161042569471487     -1.258669385173319     -2.243243199708645
H       1.557516311387918     -0.234887525306367     -2.405820996337888
H       0.636832962764553     -1.490483589219876     -3.129924312065786
H       1.906146396380253     -2.004593501132784     -2.020209704807570
22

C       0.060499687394505      1.957043912836813      1.005147043205871
C      -0.874666116683083      0.824929172996667      1.556674956491762
C       0.107265381175613     -0.206848799402836      2.038235553768676
H      -1.663070292468519      0.972596213302757      2.298435248344943
C       1.265646487040528     -0.037578264215005      1.333909815610035
H      -0.142688288449110     -0.928618766973038      2.802501276765746
C       1.256362714318707      1.129103474761565      0.569669512212970
H       2.210726902733703     -0.633899221819174      1.525912410943629
H       2.183527752609419      1.451859243678583      0.055667255961275
H       0.363717187158798      2.648560278055887      1.842036542760344
H      -0.453291789615870      2.706799497693432      0.383203841216292
C      -0.724401921851135      0.076824646188801     -0.987550040630096
C      -1.612757994414621      0.161170830076539      0.158461773664736
H      -2.543320156224236      0.686619801975801     -0.139523368323447
H      -1.939156407226371     -0.860967406968780      0.525360057759795
C       0.108556331282069     -1.123432695931468     -1.161216915574154
H      -0.760670306788120      0.944916281478337     -1.700532141574882
O       0.064541631403159     -2.075715481872902     -0.373059770535293
C       1.211753782035670     -1.218630259654592     -2.259078561931667
H       1.621586079777169     -0.169552300031925     -2.279204737504006
H       0.669899535519466     -1.426754853761708     -3.245632162837600
H       2.018821077521810     -1.982456167151462     -2.097404369509591
22

C       0.082521359813816      1.963589827584480      1.017647476801126
C      -0.873246045106292      0.821276625748177      1.515379995561386
C       0.114255368822482     -0.194746731852977      2.043791121274967
H      -1.562122405288195      1.098208364040626      2.331866434462140
C       1.292160935280860     -0.031875660309397      1.344241150960472
H      -0.118348734374155     -0.923536735446670      2.825803178200200
C       1.250266373618423      1.157728823469372      0.548656923735236
H       2.213856215329387     -0.543793922605225      1.542768452876070
H       2.167847719172336      1.554801670459389      0.143550054286263
H       0.381242233921427      2.617236896675933      1.874824998903414
H      -0.390969170464803      2.691947836637903      0.346412372561299
C      -0.694910235331861      0.068593048615828     -0.951640607241462
C      -1.596480138146753      0.185479126532062      0.201140689633148
H      -2.512277095212082      0.725568614933196     -0.025311328069127
H      -1.807145973024781     -0.828104279284575      0.518722139560370
C       0.120816940700409     -1.110421952208691     -1.155621250081676
H      -0.703314360367823      0.877657665017666     -1.625950946183285
O       0.064082029889606     -2.042151921484016     -0.355316690864747
C       1.236639540204126     -1.160516330839910     -2.275854896686360
H       1.744204975294582     -0.202990813205114     -2.235173264225365
H       0.813899300165557     -1.315143464149798     -3.272072404413307
H       2.024233588497826     -1.906554693265581     -2.144647069535969
22

C       0.095005189246980      1.967525790430398      1.036887953095870
C      -0.852904507506284      0.819215745215167      1.480671617136688
C       0.119409836578071     -0.167203379384437      2.037652516654072
H      -1.534126723000176      1.230189624324181      2.268665917097728
C       1.315552795290691     -0.006762098180208      1.366801781223528
H      -0.082619486902307     -0.937862894766520      2.792775226467059
C       1.229513530527371      1.169714781986223      0.533364835667501
H       2.248914537900282     -0.588556014793098      1.488475691736208
H       2.174397210004486      1.700600194402551      0.175052897308272
H       0.410439699741329      2.487890880153238      1.940973732936398
H      -0.316865925929326      2.619612064075919      0.235462442704795
C      -0.655236799892147      0.056901535472108     -0.910226353294129
C      -1.571937338420739      0.203401592842927      0.242082640578052
H      -2.475093691645117      0.821817886686999      0.089684836504763
H      -1.765948906061384     -0.848597527513412      0.542867042450676
C       0.154591305938539     -1.101596395441387     -1.147249635845863
H      -0.611453963059965      0.919532034668292     -1.734330803105078
O       0.058571305650624     -2.011398853937763     -0.335811931494377
C       1.243868768188070     -1.094029243140927     -2.280548409592173
H       1.891279012984623     -0.169688864151462     -2.250309521111635
H       0.937140597490897     -1.164105897783512     -3.340807213638269
H       1.966075697937706     -1.910006127617463     -2.111163607583338
22

C       0.093399337470124      1.957641618884413      1.047342308173988
C      -0.822973269511377      0.832130553247739      1.473633388673932
C       0.140667976019758     -0.139199403791283      2.024096470934523
H      -1.573446357999512      1.245235854909442      2.126441403475325
C       1.340122290579336      0.031592194516268      1.396605141971267
H      -0.083119902597330     -0.933038562677165      2.713107986541732
C       1.219891501355577      1.169789121305875      0.522063201260166
H       2.220794288821238     -0.672649742109721      1.398754260599689
H       2.048772411300144      1.734434405686154      0.189731933850098
H       0.446854653741064      2.434789134455072      2.001151806011707
H      -0.271505316647901      2.551624835933229      0.215273961534512
C      -0.601561092398782      0.092539727581068     -0.896083363162850
C      -1.544614510010466      0.206021619347475      0.276118787382092
H      -2.408240894874909      0.855969813053965      0.123170106451558
H      -1.843557783871758     -0.827102587848653      0.579750438210709
C       0.198800436588372     -1.083730344143053     -1.139538868429552
H      -0.545540737338344      0.748964450936334     -1.668841293437852
O       0.054191195286972     -1.987730932525758     -0.318932862963274
C       1.257001396407310     -1.019859586062885     -2.277181369869819
H       1.940342346786192     -0.190789390707626     -2.244015634580379
H       0.946837739377237     -1.024094116970345     -3.368321625926944
H       1.848297381176585     -1.952926822626203     -2.071469877485836
22

C       0.091473664005943      1.939164430845604      1.052133829939857
C      -0.795235258191447      0.851999480187565      1.483506734195312
C       0.169399730650232     -0.111809874252577      2.016851616122700
H      -1.671871564009482      1.172048218917357      2.127567080097556
C       1.368953696008427      0.069025535361758      1.420128198992849
H      -0.112553776678402     -0.960969120863831      2.670365244588445
C       1.205972603523216      1.154541656359372      0.518758497092973
H       2.085932616408840     -0.703490000729983      1.345440270005069
H       2.062503047311148      1.756726546457376      0.084813941409451
H       0.440609599867121      2.473348549716025      1.936676790847676
H      -0.313082781305240      2.638840956430284      0.289260031021635
C      -0.538107888954861      0.131047297510692     -0.864308627372888
C      -1.505957241252671      0.190073930166604      0.286167795558220
H      -2.347560400024805      0.879564509206425      0.074691409687756
H      -1.953239554397833     -0.729835883184648      0.601582192339071
C       0.228218835327354     -1.048497351921093     -1.126294784892816
H      -0.542960668909156      0.840562744104247     -1.799735319343188
O       0.061706270449186     -1.974475448214216     -0.316601660212963
C       1.269956169643392     -0.969653637813271     -2.267214306690631
H       2.012113043866803     -0.128581602654691     -2.144526776187265
H       0.863950407811629     -0.928640167249574     -3.243044920840256
H       1.735971315815203     -1.929121368535709     -2.117474340226010
