22

C      -0.054358877019910      1.818292036192819      0.978000695886790
C      -0.885130400871850      0.756600608199369      1.646415371213540
C      -0.008396110223220     -0.265458063823011      2.008732505439470
H      -1.784426625062059      0.987833627452589      2.204802340157830
C       1.193718366157370     -0.113870754970751      1.298685222592910
H      -0.262245946600830     -1.114433596881321      2.628290239716101
C       1.120422421893490      1.020418721708359      0.528661857645340
H       1.993221352956530     -0.841390399401481      1.280148592263270
H       1.895057938714940      1.397305068361709     -0.125190678932640
H       0.287890694966570      2.516734345025499      1.757598249308760
H      -0.555458155466170      2.403955993682249      0.209272238163790
C      -0.700163294135400     -0.034993348405441     -1.014957068363840
C      -1.714487045356380      0.033886352619679     -0.075679580887860
H      -2.449619693011539      0.827769164010049     -0.151553653547790
H      -2.075477670016270     -0.904102434507051      0.329249252262580
C       0.037995126778830     -1.276911931387211     -1.164452438837120
H      -0.512837261450720      0.773727152348119     -1.710901131945380
O      -0.108000216134870     -2.202618371901111     -0.379100983467770
C       0.980229405324210     -1.405757663678131     -2.335145058936740
H       1.363078896085740     -0.442711049025371     -2.678088653987070
H       0.434233439777440     -1.866991205201431     -3.164376608054930
H       1.804753652694100     -2.067284250418121     -2.070410707689250
22

C       0.046738516579111      1.908885610519309      1.179428834579775
C      -0.783272642579397      1.019441239896370      2.102191685821417
C      -0.161173066484736     -0.149819074851124      2.425510270990632
H      -1.748244544239295      1.461939064446268      2.365911904959579
C       1.132271864132970     -0.125909740506743      1.718437436140820
H      -0.341990139077437     -0.996677099411668      3.052736954667116
C       1.270539951709688      1.050725396486980      1.079404717259552
H       1.835638733213689     -0.958271762435205      1.771132933689304
H       2.176933446080323      1.306611317935793      0.577953037247782
H       0.362348058690964      2.822894131250800      1.731440986007636
H      -0.531856774486166      2.065351780041909      0.207107967792951
C      -0.977016203428493     -0.302800862282761     -1.211289167856697
C      -2.067649420233377     -0.251784370250892     -0.456739528134200
H      -2.646590790797359      0.688089119921549     -0.503692928678928
H      -2.345138128995560     -1.129490119778435      0.104290636164347
C      -0.136812161269797     -1.489584352689561     -1.163446434885102
H      -0.609416057888867      0.502193159522736     -1.806869451353508
O      -0.111123807055989     -2.351126666370243     -0.304451465504662
C       0.738339610237432     -1.638310057655533     -2.466080761174645
H       1.004764111599267     -0.604040490437808     -2.843672393796167
H       0.137135740448395     -2.042503645536115     -3.319510731253660
H       1.653759644061706     -2.364369265984803     -2.423646464002605
22

C       0.429906344759102      2.039942616885825      1.580821235048023
C      -0.617602521391169      1.398963465646774      2.431314144146921
C      -0.231265697008031      0.158725490641433      2.825754602011775
H      -1.589356676481967      1.790944888828319      2.776813306088592
C       1.062582824460814     -0.126972371374200      2.105575578057340
H      -0.850040201908375     -0.366031999835946      3.529948814595714
C       1.503266516831421      0.988735611538573      1.470003081044330
H       1.654728365680172     -1.042885780966317      2.371700178461365
H       2.477725243772551      1.075216887501388      1.121319417193221
H       0.779278634098085      2.958950507636557      2.080707708440224
H       0.069397329806101      2.071935498506803      0.553538114826236
C      -1.402679602779742     -0.652201521958167     -1.455649053064131
C      -2.599231912889089     -0.763835460086127     -0.813075556431012
H      -3.311254832278199     -0.000649233158768     -1.126133467193684
H      -2.714716588426442     -1.437001029268113      0.054336499024928
C      -0.366670847742567     -1.700386165109831     -1.305781955641089
H      -1.313997235333632      0.042147004916159     -2.299595390424325
O      -0.232690611489900     -2.358215708964898     -0.306935442987792
C       0.618680303700065     -1.907730428390237     -2.450250818029231
H       1.392540620030492     -1.101107320815819     -2.358805068736439
H       0.187087039260310     -1.660340051473504     -3.407766994727422
H       1.101631479373456     -2.932582936175511     -2.575331785219590
22

C       0.712656327539472      2.069095177792597      1.934812030205151
C      -0.468735747499805      1.645893415514137      2.721078753328903
C      -0.224060784259648      0.437380692554437      3.155431223098546
H      -1.395595059295764      2.194485877095072      2.815320719406810
C       1.054124520327366     -0.039697391188699      2.611518785379879
H      -0.887186435350415     -0.183917933912605      3.763425046325157
C       1.626977177636151      0.911872289382820      1.867129699910114
H       1.277763125423731     -1.082633714536433      2.846374836315468
H       2.638992047963081      0.868084232488715      1.508902711254019
H       1.365377587211381      2.806120283225843      2.440622332884019
H       0.393849901834957      2.416098726034447      0.938655977275230
C      -1.886701009497069     -1.215971145630031     -1.910167377908352
C      -2.898189605282357     -1.108931811473753     -1.059556902967841
H      -3.934347620936242     -0.829043003346028     -1.334266727066988
H      -2.824674707456902     -1.508658514741161     -0.002595706359879
C      -0.565601142204245     -1.896452201099373     -1.505649218955316
H      -1.973394956062248     -0.779991911663155     -2.922452609666533
O      -0.595509149336837     -2.296311532613880     -0.372784491494076
C       0.702922747463049     -1.960450362881002     -2.293179567375504
H       1.537642132025798     -1.915620306206346     -1.577914956557830
H       0.938921234038566     -1.229624125399227     -3.054064504564613
H       0.759295092800095     -2.912847785471709     -2.818178415131451
22

C       0.985940941468224      2.110064798675378      2.199510845720986
C      -0.276843748139749      1.916068803412299      3.038682943846301
C      -0.326887274933589      0.593501470093757      3.440158306125885
H      -1.026838333689768      2.730245254352340      3.019833180815814
C       0.996025925655901     -0.101968491331714      3.075392464815934
H      -1.189368347699548      0.037430217753392      3.889961607042954
C       1.724749085398243      0.806993717448830      2.380704483936409
H       1.234962052314842     -1.137493301890904      3.314349204469898
H       2.665937854858131      0.428998369394030      1.944392378123861
H       1.576002294617780      2.976976486782059      2.597626757468281
H       0.724258008103011      2.459459295594355      1.149248358441759
C      -1.976446267934733     -1.736862092887807     -2.213076533679479
C      -3.167076734869821     -1.392896964001247     -1.602203829421914
H      -4.008652852256021     -0.890505694906851     -2.146954024161929
H      -3.258075503397881     -1.282677888142683     -0.452123886360904
C      -0.718207365045937     -2.103945773256616     -1.464931703133644
H      -2.050791244175475     -1.641434666485608     -3.328286013443455
O      -0.810079311611791     -2.308572983028681     -0.248168441701620
C       0.429638789145626     -1.868807439131388     -2.375216823885336
H       1.405229500561909     -2.148632783671083     -1.958212489159155
H       0.525793695021142     -0.741760051787211     -2.463834464099324
H       0.358298135312574     -2.261401204445928     -3.395823413003247
22

C       1.381991054506032      2.142052039255196      2.730740896801680
C      -0.035985463982310      2.034424779909290      3.213865342647734
C      -0.312272327237687      0.802618330957360      3.661259592353404
H      -0.724394293675184      2.897937545723342      3.389242003775031
C       0.845380931200557     -0.024783987112666      3.479781094317004
H      -1.274048542487298      0.530065215789150      4.161527682549930
C       1.740968348336271      0.742899302747125      2.804250968171906
H       0.799281877638837     -1.043729203003222      3.744302716631670
H       2.718209491074300      0.324852963090517      2.450994859970987
H       1.940272570626507      2.938060885740172      3.253533150939076
H       1.528432735286131      2.406832064445520      1.666978946205529
C      -2.259669232203858     -2.124368560062881     -2.431774168052410
C      -3.428399504887563     -1.731047332707662     -1.994111561413884
H      -4.360967375039219     -1.930597160941382     -2.588337481647859
H      -3.776888389061063     -1.449083482776406     -0.941547203099560
C      -0.940303647893658     -2.106511936430654     -1.603295352804719
H      -2.230654103313533     -2.418492571081784     -3.529879188914291
O      -1.071517697453758     -2.423191706819272     -0.443110282467135
C       0.355091092585709     -1.783531444950041     -2.297320484600893
H       1.250518939678562     -2.027361098655842     -1.720908118509411
H       0.446022544188773     -0.686944266798262     -2.498532251871731
H       0.571965812824013     -2.205046892253039     -3.308555274138390
22

C       1.693882251401988      2.122769412448986      3.228292841649141
C       0.178189331816659      2.247826632842993      3.543407624996738
C      -0.369991937018233      1.031765738710644      3.709039067864048
H      -0.344404564679208      3.221493598554654      3.723947467909056
C       0.728892997838664      0.054718981607802      3.642848055907193
H      -1.440507585788059      0.931097091643838      4.003378597503954
C       1.913810482303798      0.658686043111114      3.388268403541158
H       0.607041428164064     -0.977003247849932      3.741873520176571
H       2.720120983329001      0.026428121811966      2.858286861228095
H       2.346345140540208      2.799067626896528      3.815288427445457
H       1.796415651951323      2.482477879505698      2.196932653054326
C      -2.292457136221368     -2.238549721915478     -2.645300028354228
C      -3.598083703844399     -2.583201214092087     -2.321323871789086
H      -4.425595848784555     -2.274109697495426     -2.978186425859785
H      -3.856833611078711     -2.802255946572571     -1.247020464149518
C      -1.205376079682708     -2.188277210015951     -1.737196886074600
H      -1.962853947771132     -1.965463891871091     -3.650988835303009
O      -1.417254231421055     -2.331477640610917     -0.529531145498999
C       0.122979666446086     -1.689255989085044     -2.303505088316805
H       0.913293887193180     -1.448697788822926     -1.620617180524402
H       0.124210981324339     -0.901183377787507     -3.011517606434283
H       0.656399670058123     -2.448944197769595     -2.954856649765752
22

C       1.893244928826955      1.979309234316477      3.729018292117817
C       0.435604602346293      2.450217510268543      3.739974642881981
C      -0.311028497889107      1.266364461485073      3.771410241463049
H       0.223289266993053      3.537434848146762      3.929305951487622
C       0.573775979320838      0.147167802891277      3.819191667891514
H      -1.428200829178319      1.171273288931296      3.822558475142158
C       1.901244096800925      0.546655476792636      3.784066992349426
H       0.219741419791897     -0.829940651973848      3.660028669588312
H       2.718971136646643     -0.039550819604545      3.338593875182512
H       2.309124437498143      2.474626405063530      4.671781515097710
H       2.551463279816553      2.471212491035035      2.941631513998102
C      -2.471054500976477     -2.412742183149280     -2.859715247151730
C      -3.485365001725255     -3.137085264534754     -2.515104939928102
H      -4.134433270077233     -3.378978947385900     -3.318457238864867
H      -3.552611218661349     -3.780366302889743     -1.636964007127202
C      -1.459989063622077     -2.074658811111194     -1.800486682793234
H      -2.377471820867257     -1.998023204278175     -3.832402906936418
O      -1.710069380824684     -2.282906056884244     -0.655414820678513
C      -0.101155757556511     -1.698577963298452     -2.288428046196215
H       0.432611384340383     -0.846079295112711     -1.842652604286583
H      -0.151984869653405     -1.401285666367301     -3.340257019308017
H       0.729850417309815     -2.474412959819864     -2.348291537540133
22

C       2.089091740754630      1.847380409591943      4.177946584190983
C       0.740815917479589      2.538096642633359      3.938468554035527
C      -0.138466460089916      1.519971374824354      3.830005299481562
H       0.533663951801969      3.593494712435704      4.274707067160613
C       0.439752512606008      0.203180931371982      3.914293160791540
H      -1.200393315507679      1.782228511510011      3.670366747860762
C       1.802951567536792      0.352849538727982      4.082151169516649
H      -0.067235797203795     -0.709992303324157      3.724193388446938
H       2.528154087070638     -0.383477586543565      4.040100310626922
H       2.550845447571991      2.419283393289486      4.957806365078356
H       2.805613809105531      1.967159975674895      3.351599508368210
C      -2.538663526302594     -2.720089132355425     -3.000688857974880
C      -3.566377662037290     -3.597320074100958     -2.707301240010376
H      -4.240213451316437     -3.967290614298566     -3.428756016582264
H      -3.784377040141820     -3.535146736404292     -1.642974754862818
C      -1.690176380063942     -2.120332539715319     -1.902812285364954
H      -2.265205800972907     -2.437746315711078     -3.986460376842615
O      -1.896578250299977     -2.257450717516353     -0.730104535246744
C      -0.375811319057211     -1.395787395974227     -2.291543624401608
H      -0.187228881491419     -0.348036739230703     -1.896578956196189
H       0.025725557778417     -1.447810376107351     -3.321316992467460
H       0.384552770561106     -1.836267643757206     -1.681812473955556
22

C       2.229976076003956      1.617115968484157      4.524312552352993
C       1.090910495454788      2.519771819787909      4.126202472373097
C       0.027474729512567      1.691004289671324      3.824479449893646
H       1.005772506693252      3.638672076097721      4.209956684698565
C       0.356344772810905      0.311156295493236      4.003797125251298
H      -0.951503964951130      2.193072659465009      3.780904696603343
C       1.642013502230010      0.263261194557578      4.387486825563154
H      -0.257046221970408     -0.579452427698601      3.845514518361266
H       2.274765661717579     -0.558414303797037      4.336557193763144
H       2.638760798049582      1.833498975311080      5.553125632287753
H       3.129652077918367      1.870856806308876      3.917367653613715
C      -2.424017201252425     -3.146781293525973     -3.102279337408394
C      -3.566683661272450     -3.692560245978206     -2.732298765909958
H      -4.032890045177832     -4.432998018144867     -3.328370022492849
H      -3.896205172613707     -3.564417915791091     -1.713810749587707
C      -1.803418188100589     -2.149326735790090     -1.952486128926206
H      -1.914308634190470     -3.211946424685006     -4.073609902042806
O      -2.110461448443192     -2.244214354960820     -0.795147883826406
C      -0.874566203455453     -1.136208314797172     -2.379246102337139
H      -1.327090995642213     -0.096615490337514     -2.369208811228590
H      -0.462342208515983     -1.335100951889093     -3.409628995504568
H      -0.125170774873641     -0.908554912212426     -1.650277443877420
22

C       2.347042551416103      1.368963272299335      4.746017778368649
C       1.361940565464983      2.418196713480437      4.287758153782123
C       0.203625183376209      1.839793325304834      3.894621268656272
H       1.675337717499435      3.463934521099957      4.298184783151838
C       0.303834597526782      0.434066042641342      4.058954446603115
H      -0.655056767115543      2.360770928915853      3.346096708095752
C       1.495734976547871      0.176690623081719      4.666599751574799
H      -0.506174004898355     -0.278249837294817      3.855789572167794
H       1.884977819611043     -0.776530389049117      4.863503797241396
H       2.743182780364850      1.592700803527979      5.748220673100291
H       3.331496440700175      1.411665146669104      4.248297510336969
C      -2.412889665076029     -3.176992100835359     -3.023170089762080
C      -3.400321183809022     -4.043837302836029     -2.754038988199847
H      -3.866493592339634     -4.552520934357569     -3.562813802560866
H      -3.802331914583437     -4.060633526207840     -1.768966063571746
C      -2.055718039183201     -2.125691814937864     -1.960998008472382
H      -1.899796794150877     -3.009181588183586     -3.999433429201215
O      -2.274935831148324     -2.082264581702094     -0.750186868512070
C      -1.305270719525930     -1.071508618406704     -2.636892760518077
H      -1.956165780850295     -0.572164750413330     -3.348311244181863
H      -0.359775763719143     -1.359094159399694     -3.198922303163255
H      -1.125842833152103     -0.302503873964209     -1.874894801970527
