22

C      -0.054358877019910      1.818292036192819      0.978000695886790
C      -0.885130400871850      0.756600608199369      1.646415371213540
C      -0.008396110223220     -0.265458063823011      2.008732505439470
H      -1.784426625062059      0.987833627452589      2.204802340157830
C       1.193718366157370     -0.113870754970751      1.298685222592910
H      -0.262245946600830     -1.114433596881321      2.628290239716101
C       1.120422421893490      1.020418721708359      0.528661857645340
H       1.993221352956530     -0.841390399401481      1.280148592263270
H       1.895057938714940      1.397305068361709     -0.125190678932640
H       0.287890694966570      2.516734345025499      1.757598249308760
H      -0.555458155466170      2.403955993682249      0.209272238163790
C      -0.700163294135400     -0.034993348405441     -1.014957068363840
C      -1.714487045356380      0.033886352619679     -0.075679580887860
H      -2.449619693011539      0.827769164010049     -0.151553653547790
H      -2.075477670016270     -0.904102434507051      0.329249252262580
C       0.037995126778830     -1.276911931387211     -1.164452438837120
H      -0.512837261450720      0.773727152348119     -1.710901131945380
O      -0.108000216134870     -2.202618371901111     -0.379100983467770
C       0.980229405324210     -1.405757663678131     -2.335145058936740
H       1.363078896085740     -0.442711049025371     -2.678088653987070
H       0.434233439777440     -1.866991205201431     -3.164376608054930
H       1.804753652694100     -2.067284250418121     -2.070410707689250
22

C      -0.161155155963714      1.798688806879018      1.237984493654638
C      -0.773354514400739      0.594319522054850      1.958894389062100
C       0.086826334782197     -0.448254816637563      1.841526340358336
H      -1.668758497069140      0.665726949646103      2.554816978832906
C       1.287514685077821     -0.069253983623397      1.052600299726304
H      -0.103704843561982     -1.479864624399078      2.086886604341355
C       1.131801784414360      1.241676248489765      0.713327807240705
H       1.958423186133580     -0.843663247609314      0.686789275923951
H       1.799791043432002      1.793014639709779      0.071877531357347
H      -0.180271425534629      2.763214666191583      1.722502139977709
H      -0.869498783514507      1.862312180278853      0.380374345295824
C      -1.067760787776155     -0.231262135980245     -1.455865820106543
C      -2.240001788848124     -0.216884502901055     -0.801379613788446
H      -2.947315362936126      0.606333036729192     -0.955052758947166
H      -2.380869760589815     -0.936942304574885      0.023068358636457
C      -0.115516008279158     -1.341316385532379     -1.244417081525058
H      -0.861696816856885      0.578540178172901     -2.224446043265599
O      -0.262399049716197     -2.070352216750230     -0.301315438542796
C       0.932840532795961     -1.530220117257938     -2.276432863096252
H       1.543018901522878     -0.635075385565496     -2.416281507891089
H       0.478121397076877     -1.866392000909367     -3.229772225471070
H       1.650460866743288     -2.315530018419438     -1.976258068270867
22

C      -0.180548132501137      1.766855861733635      1.484315299080493
C      -0.582284358202626      0.490968473589560      2.207953787867009
C       0.371092818940300     -0.447321602001467      1.939582509966068
H      -1.488684515446145      0.414516501165810      2.779498068090489
C       1.391151669318083      0.095956671029727      0.981719959167535
H       0.444158763680750     -1.453447777175199      2.380693142000399
C       0.993462536378990      1.358467917185447      0.667913526921228
H       2.286916453059294     -0.479693968304800      0.720566636723811
H       1.318361454862147      1.861127890479073     -0.232016449326500
H       0.046309777103011      2.642051245065908      2.155171166783557
H      -1.003351680090147      2.144939276372050      0.792938202121873
C      -1.453885320409007     -0.514860780561008     -1.873401306685836
C      -2.712938406000041     -0.548556988654798     -1.466181632317691
H      -3.488045677636177      0.049273512130334     -2.011041759447565
H      -2.940899803548767     -1.277816069098365     -0.642360369259060
C      -0.391829576878696     -1.469081554814324     -1.382749102917843
H      -1.106069065888343      0.240815333303604     -2.683340811305676
O      -0.526359013171572     -2.189917613742567     -0.422592321958001
C       0.919207699311486     -1.382361813252230     -2.127699064030435
H       1.372414801288567     -0.369273687950855     -2.088070492775901
H       0.733711983657434     -1.572711508779455     -3.194040219931333
H       1.711975180786135     -2.113689698206066     -1.824615754323301
22

C      -0.254264925870212      1.672537939413652      1.572114009611452
C      -0.300350687816412      0.427455053958306      2.391475177425504
C       0.648384038931452     -0.415906574859764      1.995843181904272
H      -1.038114703256554      0.197107647968844      3.139394015935185
C       1.426599994833719      0.252015071968384      0.962466162235328
H       0.619646380982041     -1.464663734626785      2.301145822472640
C       0.896789888594365      1.465837173112986      0.666216584403826
H       2.166042359162216     -0.330924527861980      0.426347604948451
H       1.276254794612803      2.082212278085164     -0.129201996040329
H      -0.344008857357774      2.622200676843610      2.091722554200299
H      -1.167351978106403      1.664452149133360      0.949385961457304
C      -1.687948183758367     -0.803554087182052     -2.330789820682325
C      -2.954642704466165     -0.957318788774497     -1.924655122829089
H      -3.796661999323105     -0.351389245822977     -2.356290864440170
H      -3.013319875459436     -1.565425760909438     -0.962845172752038
C      -0.630590202697919     -1.515375663586104     -1.535342877344386
H      -1.448233733912764     -0.184369298040805     -3.223222440933362
O      -0.939169842109642     -2.295256507627671     -0.649810921267238
C       0.824126444030137     -1.157014022015685     -1.824087884130883
H       0.875532326825859     -0.086866807913753     -1.734888738883564
H       1.236095639690974     -1.241761148293512     -2.812385860792049
H       1.556452141592656     -1.690965420909995     -1.151568958756799
22

C      -0.316005887268025      1.610238306166894      1.692523447244511
C      -0.243084517058389      0.350870148813052      2.559498970050672
C       0.927292169416627     -0.289948691547327      2.224240611292343
H      -1.067451926565656     -0.014628277916046      3.156248933309018
C       1.548186976539285      0.423473404116882      1.139408287883333
H       1.264945185700603     -1.240143676540034      2.682467645190932
C       0.859644735172148      1.505258140253767      0.755374651543778
H       2.512394073364218      0.229106973448273      0.718623612512991
H       1.191820109278519      2.158512203796419     -0.051758067025929
H      -0.268015518980270      2.529382458041927      2.282236435905525
H      -1.239758371758397      1.641507673593922      1.106571690762869
C      -1.917127604789701     -0.954741400251458     -2.537938746979071
C      -3.197269842615323     -1.248788342691829     -2.492857753732351
H      -3.942597659248085     -0.815879475916808     -3.249606175968242
H      -3.599220194538134     -2.068609394012384     -1.806781297449450
C      -0.839355295485271     -1.622992451976923     -1.710774339616842
H      -1.661132130334474     -0.145402727885624     -3.158994763890840
O      -1.121136291279170     -2.429863656308425     -0.839795221882962
C       0.553782343945445     -1.112045512740059     -1.969450489607159
H       0.667631521939177     -0.060339616424009     -1.915202074881148
H       0.776983074642012     -1.276567523380188     -3.012673475580934
H       1.335065544681820     -1.552393644968871     -1.325327097228329
22

C      -0.348605478838246      1.514838911770673      1.751747051946065
C      -0.103546870682306      0.415121512963444      2.741369827399347
C       1.074042583993102     -0.148600035201714      2.418028483277253
H      -0.969409026962485      0.067633501908664      3.309233439472945
C       1.763104254364784      0.540364531151983      1.329707722867627
H       1.408614558761840     -1.084476199281912      2.931344539213923
C       0.926362806068429      1.555349057976252      0.963540953679619
H       2.704284155547725      0.308035160432554      0.911090136237801
H       1.075027355689139      2.429568884544632      0.333662256155506
H      -0.587139551938148      2.545345027223124      2.169225537744154
H      -1.252417690596237      1.109038180007076      1.226825287955540
C      -2.164775370401535     -1.042988587541103     -2.759702915112500
C      -3.345975902278400     -1.732413395724040     -2.894982210522020
H      -4.139311389830867     -1.416969964719348     -3.620855033582038
H      -3.546270911755206     -2.491161937634907     -2.098971283493714
C      -1.102578257975938     -1.548801312126084     -1.902948840058991
H      -2.014539203069014     -0.274146400900793     -3.471246708952553
O      -1.389689582304992     -2.449900689043913     -1.125292694339240
C       0.302304890587277     -1.197776792256893     -2.173419430487004
H       0.567302808660567     -0.121867699798831     -1.978640674384186
H       0.600119314252858     -1.462722318365248     -3.234238091300063
H       0.981312345713224     -1.665336885684025     -1.392963833452642
22

C      -0.337160391792585      1.535849894082069      1.740802287937506
C      -0.073961603288085      0.333378496489329      2.734075787500443
C       1.238445706654262     -0.004687852277786      2.584871439271336
H      -0.829559060354308     -0.280760623120662      3.310836738521550
C       1.893361954565106      0.754625964622035      1.576779082097985
H       1.682641433271781     -0.862788914531037      3.127214476218618
C       1.005685095243814      1.594982151542446      0.993296757036940
H       2.932735605777398      0.679083013469440      1.391901666836468
H       1.219522904124768      2.467920277447158      0.362229339070589
H      -0.452997541010985      2.482398749923757      2.308324187478949
H      -1.175947353641357      1.391140358711311      1.057914931575188
C      -2.337112933863041     -1.450971480669691     -3.082124066431599
C      -3.558312103195993     -1.885348500946437     -3.076943502794169
H      -4.295013400595176     -1.451577278366838     -3.774343395270634
H      -3.944210112421595     -2.703640973877056     -2.474793573694450
C      -1.312557553892379     -1.785060011670585     -2.109692906722696
H      -2.132462240507137     -0.711737927205763     -3.850042204838277
O      -1.586519389538482     -2.512847250300675     -1.177125948832824
C       0.047762852338952     -1.096186932741940     -2.297974755641776
H      -0.031267597664727     -0.022182975437838     -2.549232480964798
H       0.522914245222990     -1.566922432874240     -3.177093855942979
H       0.678791645221257     -1.171299196551328     -1.380913230343938
22

C      -0.225518279002616      1.429555825047806      1.690881978033700
C       0.054075820330047      0.397264850517816      2.684419571229695
C       1.355822046725248      0.045933214252612      2.650722282331599
H      -0.822387918372434     -0.007601362249992      3.289295872266112
C       1.964130665075960      0.925580002823237      1.703764358174176
H       1.819277769574232     -0.684410975845587      3.328937807711596
C       1.084260960978125      1.782655452047580      1.149454585324545
H       3.007939804581691      0.955592549673714      1.490735456336798
H       1.342049305250695      2.523506568512546      0.402912072045235
H      -0.840532774640394      2.230439196202370      2.179240662879436
H      -0.964909414113883      1.045822848662200      0.969636336026691
C      -2.409577145013753     -1.865811249922419     -3.401369791807025
C      -3.765508312678511     -2.130644037042380     -3.264336798948816
H      -4.518360508143380     -1.930856730850958     -4.040872883732214
H      -4.096834637881166     -2.353545156827240     -2.256812513462544
C      -1.519267539029084     -1.893143064267770     -2.239438658069793
H      -2.114369996754310     -1.427902958191777     -4.422443212639216
O      -1.758842303756044     -2.684476788835340     -1.328465677369622
C      -0.304480616991390     -0.860062332995112     -2.195025996009242
H      -0.661160913349947      0.082409917247978     -2.564539222722790
H       0.509681984206402     -1.120036053560702     -2.853811293419162
H       0.109471495899964     -0.791624753316676     -1.215117261376611
22

C      -0.138582659634387      1.368287982732887      1.571408992399695
C       0.206590564395942      0.265900875401679      2.649074943743084
C       1.534725606710989      0.187251168615101      2.713725343266075
H      -0.489671683283507     -0.257462459945123      3.412017834488894
C       2.137226928142779      1.157680391623269      1.771271226258406
H       2.082434345306567     -0.427116470459786      3.447448965688111
C       1.160674961224979      1.867153964167785      1.174002770007842
H       3.197880546606092      1.263804624316625      1.671590028017454
H       1.336635820207405      2.526322469517853      0.339897260078395
H      -0.813703530791931      2.233306542322253      2.034272873791458
H      -0.831727287529464      1.050865344500260      0.744269187062673
C      -2.610975819131811     -1.952109662770158     -3.493324139659210
C      -3.806856279425446     -2.516410645969598     -3.581507711398950
H      -4.444450635998281     -2.512621601348348     -4.469273845647835
H      -4.244795163407101     -3.019269645662515     -2.759292484225255
C      -1.777686969564962     -1.972478028881892     -2.235330387475851
H      -2.242308554614229     -1.361106305638296     -4.390953009902012
O      -1.906475159933703     -2.786234116917511     -1.390417187403785
C      -0.820633850698161     -0.742861700863376     -2.093704281674099
H      -1.227677482235496      0.078296513124128     -2.710702481359949
H       0.154365835314558     -1.000435171352852     -2.614453323075004
H      -0.516939394165223     -0.434275643811802     -1.030595719110359
22

C      -0.092288632555676      1.278891926268775      1.628205351014778
C       0.330049334105155      0.185111408212046      2.465169958248982
C       1.689739974970158      0.325654078804450      2.691405374574056
H      -0.354993531265062     -0.423060876931499      3.172786836362502
C       2.289224400431312      1.416070936841698      1.868315645530733
H       2.308285550847062     -0.297715405943611      3.387321765248858
C       1.177682454476457      1.933791891977052      1.204211048576439
H       3.351100930895445      1.442260016171818      1.845762627109131
H       1.208350370761130      2.751421691943155      0.488734769205966
H      -0.770252078644486      1.852276417103612      2.228028316207017
H      -0.752525318086091      0.965243333492322      0.831795320418113
C      -2.796253066347928     -1.961768991189349     -3.572875256039315
C      -3.660571575239921     -3.024303454250212     -3.710833145519798
H      -4.378778499074896     -3.068526077367681     -4.565885218071303
H      -3.617158606065209     -3.789860053952504     -2.951200721562204
C      -2.074183301096530     -1.966739625215910     -2.307542025961105
H      -2.735004923291133     -1.224373947854511     -4.356593100190072
O      -2.193227996928993     -2.756054198411114     -1.405373887292364
C      -1.121043693133907     -0.759461471044390     -2.174439553342103
H      -1.628749302219681      0.138832314888518     -2.527620559295578
H      -0.170480832964237     -0.938264443628915     -2.718231875695793
H      -0.893755316171103     -0.577593104198637     -1.079777191732578
22

C       0.009995810793445      1.192194237573640      1.474606665409482
C       0.600334150026965      0.029950941290280      2.364989764315469
C       1.874584806758428      0.312687535448034      2.601780987290981
H       0.019084229746096     -0.864714375366593      2.744463379035100
C       2.254046821718552      1.641502892510293      1.950503503282568
H       2.529059913206256     -0.228205708467919      3.334616319427212
C       1.119092738790617      2.096947044554247      1.426945344319989
H       3.166204864715876      2.178162019887799      2.039141859178528
H       1.228471888777581      2.984327911196509      0.801200848750463
H      -0.931784203530771      1.507547347256399      1.947206394469732
H      -0.253579118743491      0.958075375130891      0.392967765765921
C      -3.120438528583289     -2.127706950697167     -3.543791207868884
C      -3.488728215925629     -3.328481169010192     -3.938932268937797
H      -4.010926696698684     -3.621427763383667     -4.851868860636474
H      -3.476568912097019     -4.099396831361059     -3.225059630350403
C      -2.402129264837601     -1.895713249568827     -2.263663597219011
H      -3.262097090243534     -1.251163710145383     -4.083438732241440
O      -2.311101192002164     -2.697486880771695     -1.370438880545858
C      -1.428593540824558     -0.785886715101883     -2.268803720773659
H      -1.955797692044622      0.148717694343064     -2.185410016297333
H      -0.938197297438920     -0.879948087398595     -3.204247007077438
H      -0.801177399143040     -0.763813624886124     -1.382458219144843
