22

C      -0.054358877019910      1.818292036192819      0.978000695886790
C      -0.885130400871850      0.756600608199369      1.646415371213540
C      -0.008396110223220     -0.265458063823011      2.008732505439470
H      -1.784426625062059      0.987833627452589      2.204802340157830
C       1.193718366157370     -0.113870754970751      1.298685222592910
H      -0.262245946600830     -1.114433596881321      2.628290239716101
C       1.120422421893490      1.020418721708359      0.528661857645340
H       1.993221352956530     -0.841390399401481      1.280148592263270
H       1.895057938714940      1.397305068361709     -0.125190678932640
H       0.287890694966570      2.516734345025499      1.757598249308760
H      -0.555458155466170      2.403955993682249      0.209272238163790
C      -0.700163294135400     -0.034993348405441     -1.014957068363840
C      -1.714487045356380      0.033886352619679     -0.075679580887860
H      -2.449619693011539      0.827769164010049     -0.151553653547790
H      -2.075477670016270     -0.904102434507051      0.329249252262580
C       0.037995126778830     -1.276911931387211     -1.164452438837120
H      -0.512837261450720      0.773727152348119     -1.710901131945380
O      -0.108000216134870     -2.202618371901111     -0.379100983467770
C       0.980229405324210     -1.405757663678131     -2.335145058936740
H       1.363078896085740     -0.442711049025371     -2.678088653987070
H       0.434233439777440     -1.866991205201431     -3.164376608054930
H       1.804753652694100     -2.067284250418121     -2.070410707689250
22

C      -0.055638081711194      1.872097118829284      0.980794302366476
C      -0.911098535350202      0.780172823395393      1.640732364515297
C       0.049056201658890     -0.248167370010230      1.952236125743478
H      -1.789081582998104      1.035364771420769      2.277051837554967
C       1.253554922510292     -0.067026127601767      1.180425198105004
H      -0.167661985306700     -1.219618338308971      2.346230341574556
C       1.141638360529287      1.124532524268794      0.460305112677666
H       1.995138955984272     -0.833039686010107      1.105820032692347
H       1.909509210702283      1.591263993613730     -0.198132119517981
H       0.251433700342257      2.672396135029315      1.700436907875431
H      -0.545007203220852      2.402289648407712      0.180738918815038
C      -0.623173249271430     -0.023398384718296     -0.955669959572867
C      -1.724497546706402      0.063376446352541     -0.059248068389258
H      -2.514882179546158      0.754210402390021     -0.407623415457565
H      -2.082026532374905     -0.945765715819392      0.278957414306587
C      -0.001584027405982     -1.293787438669025     -1.113451423487002
H      -0.510792486466304      0.685556946379250     -1.788734410605449
O      -0.210965111083249     -2.233061476523713     -0.317348641017488
C       0.875595560999697     -1.323235937582641     -2.374876346373930
H       1.127477940454020     -0.325507029837834     -2.727663121440504
H       0.409484254434957     -1.889135582212127     -3.189181650137042
H       1.809837137451619     -1.912694939643167     -2.144581035782676
22

C      -0.085303964794729      1.947156172363179      0.966408220344921
C      -0.824601343880718      0.767566825848302      1.537407852747863
C       0.105977177969660     -0.241047430966486      1.828232079313656
H      -1.670532566297206      0.886864443573332      2.259481296346466
C       1.239184217452168      0.007697026220104      1.128399803582611
H      -0.124607804748981     -1.053056290434998      2.516607033564036
C       1.073577421725309      1.194757956780054      0.432934303079650
H       2.099061373392055     -0.627635480410565      0.923409056431162
H       1.903650613849567      1.661697241541993     -0.151746621650935
H       0.295775544509726      2.568408763647196      1.838042976357609
H      -0.648650335290818      2.594311947405779      0.294030458586641
C      -0.668235025241012      0.003160314298284     -0.938577328555705
C      -1.683731272668564      0.100141784554333     -0.005386688972448
H      -2.439840303641708      0.919621060300943     -0.033844300193428
H      -2.117735099563550     -0.818641597233281      0.468328346262813
C      -0.028323776927253     -1.310194422302194     -1.104491568641714
H      -0.467935779350529      0.844500250994470     -1.630265063682682
O      -0.250991927089219     -2.210937881644190     -0.347904315733546
C       0.815899444384606     -1.358537658407494     -2.335003677705340
H       0.950453037643068     -0.337557917306106     -2.742047912292126
H       0.200648601825731     -1.867883265704670     -3.096702479832606
H       1.826090496416540     -1.831906251702620     -2.252800335198347
22

C      -0.095593616835392      1.958955160157327      1.004369745965687
C      -0.902061955131850      0.730176578831908      1.452327637167703
C       0.187549810185084     -0.243334456253843      1.842540666040424
H      -1.642305589000372      0.973511609804371      2.210661327460037
C       1.305915701328562      0.082209807816144      1.064969550443428
H       0.046839664597290     -1.182558528179321      2.423589260146302
C       1.037380500264412      1.277551721790252      0.327646173064634
H       2.210585363656193     -0.566204340863931      0.998395791909094
H       1.735944722205169      1.800912781106229     -0.289704350485135
H       0.192358096067039      2.451495693901735      1.985527570544350
H      -0.655617236149789      2.713410189503024      0.390665824858375
C      -0.735111980366824      0.065053299011283     -0.977811006646339
C      -1.638544945842111      0.222084252921621      0.198440108185638
H      -2.435900800313656      0.951753091732152     -0.079176065004932
H      -2.066779527948379     -0.792382867592742      0.347400369799660
C      -0.094984645959567     -1.214352271468742     -1.140167662391595
H      -0.601224193050069      0.835640293883738     -1.750157558022870
O      -0.256520423199411     -2.190979115587705     -0.384960413999635
C       0.781741947742847     -1.435910379538549     -2.360922799635817
H       1.043561465578700     -0.451279610883021     -2.856769427428142
H       0.230074681114525     -2.089642769349384     -3.056486366378260
H       1.616571855408603     -2.077423590614167     -2.065662392982831
22

C      -0.124749963760946      1.938076434898315      1.062556156416469
C      -0.903911540477843      0.718648620102517      1.533183029528318
C       0.271139065838483     -0.171745124584622      1.800586197063581
H      -1.599488704049687      0.786497052617336      2.337822523431786
C       1.329431926701233      0.152811445074921      1.039500858028979
H       0.202263295059251     -1.172608528269596      2.274907031872708
C       0.943432861970053      1.265160751235244      0.210417564843370
H       2.273217409615911     -0.407995960769519      0.952098900927324
H       1.608761745710425      1.782801081421380     -0.435586826397083
H       0.437960887103210      2.427543435962098      1.883947038776918
H      -0.713557654778836      2.685911951606539      0.450818862094057
C      -0.700145875890934      0.176701392720139     -0.920749683942733
C      -1.656666693957404      0.265953741491254      0.214805790043494
H      -2.532451227787524      0.934409293188868      0.132658110954399
H      -2.071112178985671     -0.677897204163039      0.543506459125063
C      -0.167952971771059     -1.171021312572197     -1.237733657733710
H      -0.975475343804698      0.697862611163631     -1.821019010277291
O      -0.258595306657564     -2.088103578603003     -0.399137828282901
C       0.745011926726132     -1.514824368478420     -2.421548104206617
H       1.315219578218523     -0.745112457551584     -3.008325199690427
H       0.178271667494780     -2.106585402982134     -3.172843604872366
H       1.534957735080167     -2.085972464389137     -1.972054743808631
22

C      -0.140501529936826      1.985393992902335      1.061419390632021
C      -0.805577886844221      0.735646897384468      1.632068429325901
C       0.325118473418709     -0.197255590296197      1.791343740800041
H      -1.517800166123518      0.869602966706985      2.492249160070195
C       1.336123367492735      0.206458006655400      0.979263792879416
H       0.287349486870813     -0.977610658468379      2.557051218730769
C       0.687113075590340      1.180626726590869      0.045827199948489
H       2.270808170265548     -0.296876705764197      0.782341945120043
H       1.339941531473088      1.813879622348996     -0.629611737710115
H       0.472978402032633      2.512700878873143      1.797824276761289
H      -0.851510399086200      2.736453025318391      0.657026777429658
C      -0.593013862195176      0.286209018111612     -0.872291018804376
C      -1.659668733157855      0.220822956338307      0.235835647352725
H      -2.366995718936164      1.005718964261482     -0.018200739247910
H      -2.055368939593063     -0.788976018944446      0.295243373090266
C      -0.115269434450999     -1.138794457303386     -1.252212046984839
H      -0.772365458384230      1.017527885296994     -1.656919977766410
O      -0.304456882298667     -1.962745483119207     -0.403094427077819
C       0.680905349210217     -1.537107457154823     -2.476270717008115
H       1.036928643003829     -0.631429204796475     -2.916880295134650
H       0.071392608742218     -2.134800871797677     -3.192504753116347
H       1.386947823714238     -2.303413118779255     -2.118991080492754
22

C      -0.211234964803330      1.980668740784483      0.989853643373805
C      -0.850227105146057      0.694517741692842      1.574386447461046
C       0.435620132733510     -0.170666081827822      1.873926069024549
H      -1.436295557306497      0.857562185170041      2.540451572297791
C       1.256380702825907      0.150912788328442      0.819187430024418
H       0.612293230858619     -0.976624755029518      2.582910037575640
C       0.491806017357771      1.187631560832204     -0.109342028288150
H       2.260447004949335     -0.177705602891591      0.629795712444363
H       1.174534373159826      1.713851618335758     -0.834464211086558
H       0.576484324263125      2.392117136297898      1.598909896512970
H      -0.964300092871272      2.684456646261982      0.623899031937307
C      -0.392594874061085      0.409552521116508     -0.790387027442880
C      -1.548613941106603      0.256134102379114      0.321463967203368
H      -2.412435562836678      0.876492787189935      0.106765995289093
H      -1.942095712311641     -0.769965675455612      0.421993547735943
C      -0.047142513259243     -1.031233353072987     -1.147969831533191
H      -0.833036462184918      0.772554500362062     -1.741263977851938
O      -0.382127621172043     -1.912945857644179     -0.388107668292732
C       0.575557580086077     -1.472307990038443     -2.497972468039502
H       1.052419204840060     -0.776921681242251     -3.128791193611174
H      -0.229269810492137     -1.949071644146712     -3.079913874969375
H       1.443017822103000     -2.163202089371230     -2.333742513421146
22

C      -0.246526507108950      1.958960959103460      0.938692456004991
C      -0.790844101150864      0.700320529496095      1.622667484292127
C       0.481200678452330     -0.029580745481793      1.791436519786150
H      -1.623088558211344      0.729166281281100      2.341555657788438
C       1.195969009516150      0.136442775770213      0.687375961899181
H       0.614136054769780     -0.878819264601282      2.466737881233313
C       0.691257897064542      1.296227777172262     -0.089122031830763
H       2.094472836112998     -0.438707758408773      0.487249214814326
H       1.361759509517145      1.981747588575659     -0.582887567257720
H       0.286602344871794      2.609446797306337      1.633834634351354
H      -0.994493930270159      2.593359168639833      0.469942338806962
C      -0.591240465927520      0.324299912165675     -0.832588932418023
C      -1.509211690912982      0.224338196256213      0.360044801450294
H      -2.333363985433996      0.921439098813587      0.207011337250874
H      -1.887119200469572     -0.819836093452407      0.463356931069060
C       0.024859338374911     -1.007389708216542     -1.122440291553412
H      -1.062398199343694      0.857695062942586     -1.658834696847860
O      -0.418462814265685     -1.913478945510376     -0.388212548135237
C       0.504709051642053     -1.351790063843297     -2.480946745644666
H       0.745583204834653     -0.443144553876539     -3.046930959728017
H      -0.366652677450496     -1.850530565230613     -2.900507590927549
H       1.187581056488099     -2.195820814327248     -2.326560932465640
22

C      -0.242576756539815      2.084756673722302      0.939373249606239
C      -0.751847984004054      0.799405602368678      1.580419368502459
C       0.499690218698671     -0.032546090052752      1.730258430962597
H      -1.120079353139897      0.923818073424412      2.572662099518697
C       1.327522504982320      0.182463637932093      0.671551697013164
H       0.436694990883429     -0.925452463788893      2.369939659523876
C       0.611121086858325      1.267393335631458     -0.089012227836573
H       2.104215789776229     -0.479568911173495      0.250385544068312
H       1.188007094776249      1.745799418698886     -0.861962298392893
H       0.327180127240620      2.730354627991365      1.631549868810724
H      -1.035180220614365      2.672346102291150      0.435595684445960
C      -0.545570085760682      0.434069258541236     -0.774615530660276
C      -1.612805163988677      0.155361870313882      0.356343772432503
H      -2.608210157767884      0.647974473121504      0.192326837149190
H      -1.844707491039979     -0.902519178037749      0.532527624886889
C      -0.235265990193026     -1.046821694802526     -1.141568898776343
H      -0.957284589440778      0.962109351698673     -1.653110951183681
O      -0.339399037698213     -1.961605920158365     -0.388972538786277
C       0.474874248639689     -1.279254558758534     -2.475948376171231
H       0.851314522763174     -0.292313991153333     -2.970366849377092
H      -0.350989560470156     -1.619616566058562     -3.096505170568062
H       1.326366813231111     -1.919467631231270     -2.598680447843506
22

C      -0.142213555823941      2.123537769527569      0.877669397161483
C      -0.752266335652280      0.878639744453977      1.583864036560901
C       0.488706228862521     -0.116148644613800      1.656967443886824
H      -1.446011012054847      0.987270740304311      2.388731390736789
C       1.401801924196836      0.323016009533949      0.735875430097549
H       0.618294275960039     -0.959391444182955      2.361414585743120
C       0.495056224590587      1.215361822284261     -0.192674114963223
H       2.410344194394606     -0.057461891381217      0.374898951439482
H       1.022489150237584      1.828047031380086     -0.946276341757680
H       0.690091160716246      2.577517202220492      1.442260406774651
H      -0.876500532853837      2.909008978376879      0.517605225181598
C      -0.678340244626449      0.337305398973054     -0.735192103038752
C      -1.629783014617024      0.242424945530173      0.475480374184670
H      -2.605455630605698      0.762912287637567      0.274004073288524
H      -1.800394636263241     -0.794063633072294      0.690381885882067
C      -0.266520430845644     -1.036194290470076     -1.178977977908643
H      -1.071211292210127      0.919395342012728     -1.591871424430485
O      -0.296780838121751     -1.987757315243817     -0.411970388934783
C       0.400302071494545     -1.166400576749151     -2.555756951305332
H       0.930311075850669     -0.177938044411786     -2.817070265291045
H      -0.053602000519307     -1.592879216255249     -3.471921925956106
H       1.105863586578735     -1.907265233123192     -2.149089231045580
22

C      -0.060470103315492      2.024537382346580      0.839952828971237
C      -0.698145276253300      0.870819285542492      1.625852651188102
C       0.494551122166817      0.023084771659641      1.648913286367272
H      -1.071701638850146      1.159481113257454      2.654723357589404
C       1.294935781923900      0.436282478735763      0.700039393675998
H       0.647168999991348     -0.785208227749452      2.353028825156222
C       0.524964195595760      1.217054216419116     -0.271871140664459
H       2.373773917989894      0.192867136321833      0.760137784122343
H       1.115527566562708      1.644582398722609     -1.129349131678555
H       0.663863717112587      2.639777206873621      1.448318636132057
H      -0.835782570919338      2.764177455672286      0.413362213547038
C      -0.853881325553353      0.269924116906581     -0.757150936641032
C      -1.630761363276359      0.312614266805475      0.562840998648966
H      -2.360453891307929      1.150160059063499      0.507034416859655
H      -2.104949371069619     -0.606283660470810      0.892851178698415
C      -0.272658781495525     -1.028338152458067     -1.234267542305093
H      -1.576428882920881      0.658483938184077     -1.505660684271543
O      -0.274117935286780     -1.989250168683913     -0.480454004502882
C       0.416604111329383     -1.112037293823683     -2.533460979689574
H       0.901431781615298     -0.175315706006410     -2.884081179354403
H      -0.364755023293720     -1.491121249260375     -3.293031214696282
H       1.214106766082499     -1.904861780752865     -2.614999196872128
