22

C      -0.054358877019910      1.818292036192819      0.978000695886790
C      -0.885130400871850      0.756600608199369      1.646415371213540
C      -0.008396110223220     -0.265458063823011      2.008732505439470
H      -1.784426625062059      0.987833627452589      2.204802340157830
C       1.193718366157370     -0.113870754970751      1.298685222592910
H      -0.262245946600830     -1.114433596881321      2.628290239716101
C       1.120422421893490      1.020418721708359      0.528661857645340
H       1.993221352956530     -0.841390399401481      1.280148592263270
H       1.895057938714940      1.397305068361709     -0.125190678932640
H       0.287890694966570      2.516734345025499      1.757598249308760
H      -0.555458155466170      2.403955993682249      0.209272238163790
C      -0.700163294135400     -0.034993348405441     -1.014957068363840
C      -1.714487045356380      0.033886352619679     -0.075679580887860
H      -2.449619693011539      0.827769164010049     -0.151553653547790
H      -2.075477670016270     -0.904102434507051      0.329249252262580
C       0.037995126778830     -1.276911931387211     -1.164452438837120
H      -0.512837261450720      0.773727152348119     -1.710901131945380
O      -0.108000216134870     -2.202618371901111     -0.379100983467770
C       0.980229405324210     -1.405757663678131     -2.335145058936740
H       1.363078896085740     -0.442711049025371     -2.678088653987070
H       0.434233439777440     -1.866991205201431     -3.164376608054930
H       1.804753652694100     -2.067284250418121     -2.070410707689250
22

C      -0.050138828192383      1.824416700926035      0.967123527843243
C      -0.880156785620413      0.757256580444171      1.643355323855306
C      -0.012240243233107     -0.279336135076110      2.011946750829661
H      -1.798098217707647      0.976074026544705      2.218575775537057
C       1.198365145691790     -0.111679729017611      1.301564113432021
H      -0.256861551903251     -1.142383602497505      2.615542524769835
C       1.119372905923474      1.023950780980310      0.529709643848604
H       2.018241228121026     -0.844277896222617      1.252585801498898
H       1.872282282001378      1.377635023995175     -0.123806327846509
H       0.245089813850001      2.547765693206764      1.759312100679129
H      -0.559320138772868      2.422965511675347      0.216690679112660
C      -0.701800468307257     -0.032807304142989     -1.004316245011182
C      -1.713189107872495      0.031719921578663     -0.073603717135381
H      -2.421568432053192      0.840375688860996     -0.163653670421902
H      -2.088652996042586     -0.910117074433118      0.324617778098031
C       0.039417991836800     -1.274682594647392     -1.159445887167405
H      -0.511302416756580      0.733358910296271     -1.698847991465584
O      -0.111855238276110     -2.200726645771266     -0.372730712109770
C       0.978742665069094     -1.416455132080289     -2.335500224757359
H       1.353609194794713     -0.434513870772789     -2.680032805853294
H       0.437652135085416     -1.866509462118134     -3.205275566136821
H       1.779856480811328     -2.054283371906060     -2.057264201156329
22

C      -0.046384354989876      1.830989383412048      0.957176879111073
C      -0.875283341604631      0.757908155328805      1.640052111021873
C      -0.015170846075845     -0.292177321511975      2.014166531341758
H      -1.807341716178261      0.965583880273868      2.231269018574085
C       1.203471948762530     -0.109615490153045      1.304161087461215
H      -0.251244275077719     -1.171431414706827      2.605698010650527
C       1.117201984054814      1.027465160927302      0.531415224696017
H       2.039725539847811     -0.845203115880256      1.225946860299806
H       1.858744622735551      1.363053932745860     -0.132141087294873
H       0.204034279563324      2.576081189207753      1.758805395642120
H      -0.564766890684362      2.443423104194578      0.218246345100803
C      -0.703000518599112     -0.032138240314072     -0.993047379042412
C      -1.711880556175063      0.029696566857864     -0.070326589330175
H      -2.396655887855864      0.856468517459387     -0.176037491932849
H      -2.103244492484295     -0.916817215992923      0.322111105789421
C       0.040553692651224     -1.272695798268759     -1.154164403673710
H      -0.507952221121054      0.703357975236377     -1.695081014195255
O      -0.115898997975631     -2.199336088101736     -0.366248006710604
C       0.976229637181963     -1.426463721048591     -2.336914058673914
H       1.343031648434839     -0.427600167354525     -2.682206863014083
H       0.443871689420585     -1.862076802184197     -3.244452752379136
H       1.765397212104544     -2.048708012803016     -2.039975202777629
22

C      -0.043234549628295      1.837289620534809      0.948550317426868
C      -0.870896680823438      0.758446015966397      1.636557887345365
C      -0.017283127470098     -0.303901139755253      2.015308189062598
H      -1.806624541381346      0.955754923979453      2.239546330878859
C       1.208984925105863     -0.108380792152969      1.306479184607245
H      -0.247378434272766     -1.204609216385336      2.598227317604088
C       1.113287317783714      1.030809951390495      0.533631091696988
H       2.051568174294138     -0.842534804860052      1.201239646716088
H       1.856851078087108      1.355053723192147     -0.150121301243967
H       0.168039955146354      2.599742394431808      1.754184276854834
H      -0.570697123765356      2.463306682863675      0.215056672411874
C      -0.703600734157948     -0.033630176337286     -0.981409761632903
C      -1.711040286920422      0.027603364653735     -0.066243928327404
H      -2.377482202528565      0.875857431675791     -0.187593005059513
H      -2.117322029300351     -0.920050252353229      0.322485233134609
C       0.041925684179316     -1.271641564214915     -1.148608221656622
H      -0.503842778288063      0.692171345076799     -1.703829416281749
O      -0.119918264926595     -2.197868311550657     -0.359683190402367
C       0.972700991780400     -1.435172247324756     -2.339293778627263
H       1.331275821486580     -0.425971541354648     -2.682885811995678
H       0.454765264657666     -1.851341933395906     -3.276966333772440
H       1.765041665163978     -2.054035427607404     -2.018217281910539
22

C      -0.041092537360690      1.843675357098896      0.940645442114901
C      -0.866826501208445      0.758706659463991      1.633889652586708
C      -0.018805693141769     -0.314714081571739      2.015706031536694
H      -1.795474565196480      0.946344825002684      2.241613065844645
C       1.214572002369281     -0.108255871817920      1.309044215663772
H      -0.244147274335036     -1.235482567316701      2.591803843211023
C       1.108401356015667      1.034569124303190      0.536048236164506
H       2.055286252993795     -0.833684406155390      1.179636020726750
H       1.862574383290817      1.350453225741822     -0.176200931737282
H       0.137128767740799      2.616184198202296      1.744620226261937
H      -0.573185430027638      2.479994884163724      0.209457588967527
C      -0.703561372056912     -0.036742413696749     -0.970158924876617
C      -1.710769051671502      0.026044252428745     -0.061477666317082
H      -2.361557231742990      0.895603093631367     -0.199727789640340
H      -2.128861129363155     -0.917904274416553      0.324530211720186
C       0.043343108552535     -1.271545068449303     -1.143255397497563
H      -0.499114888304817      0.698010911050685     -1.722078534067624
O      -0.124332662339994     -2.196099543136540     -0.352873709391153
C       0.967987598381776     -1.442910180012094     -2.342737506592322
H       1.320411471858092     -0.431759356916012     -2.679858741761444
H       0.471328410056658     -1.834325990760120     -3.297127990608296
H       1.777407318570311     -2.069364895973028     -1.992304574682277
22

C      -0.040180189894922      1.850429528154823      0.933899516133079
C      -0.863178367878572      0.758058610539315      1.632332367596340
C      -0.019365145641289     -0.324704434095969      2.015747476254733
H      -1.774674936895739      0.938197896270800      2.238044825485421
C       1.219793512301108     -0.108813283042406      1.311483921079152
H      -0.242633406767965     -1.258080734191284      2.584293447406175
C       1.103180599450499      1.038711746084196      0.537892518583414
H       2.050936730034418     -0.821674420953866      1.159347789225461
H       1.869275904253409      1.347685529852962     -0.203687050346446
H       0.111957800724914      2.624085410537931      1.728700481790133
H      -0.572092719207745      2.493720420648367      0.200595831318183
C      -0.702218324621071     -0.041041199610113     -0.959761844247807
C      -1.711441709873410      0.025251914348622     -0.054898718303837
H      -2.347479953318182      0.912004169446625     -0.208791348152714
H      -2.138914772094405     -0.912034677552296      0.323762612618987
C       0.044361123980849     -1.272885254833115     -1.138348389909616
H      -0.496021029199959      0.712964591633214     -1.744180272231480
O      -0.128273591018580     -2.193923676854241     -0.345995300337599
C       0.962675137044855     -1.449587303669679     -2.347136578295048
H       1.309836517152080     -0.444172125082245     -2.675487472433617
H       0.491332045055742     -1.812504691449558     -3.305178095621982
H       1.795351539706385     -2.088304923511510     -1.966733941082990
22

C      -0.041324550674480      1.857047777593610      0.928495795832046
C      -0.859750344819447      0.756520245684647      1.631750297946083
C      -0.019156669903828     -0.334119459414120      2.015109876445143
H      -1.748025569203240      0.934100763281217      2.230631695956343
C       1.224318691756165     -0.109583504403764      1.313423898503458
H      -0.241449200669007     -1.273128183741318      2.575315753885973
C       1.098916994719790      1.042999745811759      0.539086221042279
H       2.041628923730155     -0.809485262881318      1.142669059470789
H       1.873327509618424      1.343412048740916     -0.228535655535536
H       0.094037041715534      2.624174316379376      1.708548062826588
H      -0.567067043325613      2.502075703745563      0.189662246256578
C      -0.699681096669478     -0.045383837527473     -0.951288462728437
C      -1.712954076254172      0.025589222854039     -0.047250600986139
H      -2.335082320996646      0.924727294683436     -0.214298461426316
H      -2.148303089298278     -0.903952492288757      0.323336559629315
C       0.045363049711295     -1.275623844558536     -1.134057260477044
H      -0.496537913035918      0.728882380790815     -1.760289006694489
O      -0.131919528662228     -2.191604563910153     -0.339024949851434
C       0.957794648938937     -1.455758997250595     -2.351439827807817
H       1.300311398570715     -0.460725950542856     -2.671639456927127
H       0.514300641630086     -1.790862393445775     -3.304316601253086
H       1.807224841810599     -2.104928279567316     -1.945672205160259
22

C      -0.044122562541673      1.863190844327543      0.923691612968762
C      -0.855972663780476      0.754071792681019      1.631458706306904
C      -0.018219758546027     -0.342708365962019      2.013650351278206
H      -1.722416902709270      0.935958618391989      2.223074354663403
C       1.227786155189562     -0.110495139619030      1.315386099861590
H      -0.241162719787177     -1.281745874198303      2.568800355646042
C       1.095674625294917      1.047558005530387      0.538592077269981
H       2.030445466167300     -0.801074724982302      1.128483788873670
H       1.871319680622131      1.335828235159385     -0.243767908822766
H       0.085601496149147      2.621537232454948      1.689131646462027
H      -0.559955972813523      2.502677427482235      0.176465688087750
C      -0.695898929238287     -0.048846686018987     -0.945472980160650
C      -1.715447853455850      0.027663120801130     -0.038719648667423
H      -2.324827587012759      0.931993135862969     -0.215381470653831
H      -2.156915075142518     -0.895118444398368      0.325983307056216
C       0.046705496561016     -1.279334545832906     -1.130266246358352
H      -0.500272271035027      0.737793024391366     -1.761078319346672
O      -0.135543863236490     -2.189716336821650     -0.332012895512416
C       0.953738465261914     -1.461518346479048     -2.355273646233809
H       1.294061290383274     -0.476635583760248     -2.669278192341922
H       0.535140005762564     -1.771082478560445     -3.299385423357915
H       1.808054716116216     -2.115090199366005     -1.929364245632864
22

C      -0.048389941222531      1.867927364463783      0.919225439503215
C      -0.851200768922202      0.750571243499110      1.630539747123432
C      -0.016141032522715     -0.350424784228749      2.011389189304666
H      -1.703411313103833      0.943651165118408      2.220546348885044
C       1.229258579522536     -0.110851103591303      1.317436578586707
H      -0.242010585776955     -1.283556991143560      2.560566326380459
C       1.093676797738703      1.051732113755483      0.536517977092729
H       2.021798552284487     -0.797982102659711      1.116840762354138
H       1.862067189610824      1.325745241023512     -0.247379657317775
H       0.085393992287614      2.619341413909126      1.673422569377312
H      -0.553363974879253      2.497339556655740      0.160043923541740
C      -0.690586359617841     -0.051211588966847     -0.942067148042229
C      -1.718421003198607      0.031491048395934     -0.029128793366781
H      -2.317606170974162      0.936178092812124     -0.213849495008894
H      -2.162917473879073     -0.887590186050719      0.329955131288540
C       0.048205596780393     -1.284122815197276     -1.127137644984532
H      -0.507931029575119      0.735835493637053     -1.745345989234668
O      -0.139272712550960     -2.187832340637318     -0.324475834169353
C       0.950689778957796     -1.467001211177334     -2.357225348294425
H       1.291150016054192     -0.489577567644235     -2.669983131551266
H       0.550345382899229     -1.755607073921564     -3.299225178900652
H       1.796407046317458     -2.117900601871485     -1.919744360258774
22

C      -0.054251742470905      1.871218979888599      0.915401439259995
C      -0.845504199578277      0.746094389285369      1.629444576353320
C      -0.012639778266514     -0.357031535480544      2.007294130912376
H      -1.695273794719516      0.957094790910379      2.226370771235512
C       1.228881409133106     -0.110100298264023      1.319746526639344
H      -0.244527070849469     -1.279876202019242      2.551735807105453
C       1.092231355141104      1.056209461679918      0.533244032298983
H       2.018935248908192     -0.804827861644432      1.108895350252612
H       1.846402009129502      1.314906107718786     -0.241183452821536
H       0.092978039482966      2.619552423065025      1.663978777368871
H      -0.546966432760158      2.486528171697096      0.142447343879071
C      -0.683517476513413     -0.052832332412203     -0.940518566836958
C      -1.721488543733985      0.036618799610910     -0.018794429739187
H      -2.315028329912175      0.936089333505327     -0.207039688054545
H      -2.169477569037313     -0.883285983734565      0.336670203033725
C       0.049272990678219     -1.289879708509217     -1.125116624499561
H      -0.519094292435243      0.723616475429011     -1.716484286034448
O      -0.143036417899535     -2.185818191208032     -0.316895623094651
C       0.949116264622934     -1.472423297433096     -2.356684569132758
H       1.293918046751233     -0.497643933700351     -2.673978587802709
H       0.558974308007613     -1.744723312500316     -3.307018588762968
H       1.774421437854540     -2.113880939899159     -1.916755851412874
22

C      -0.061794899010510      1.873637151703272      0.912121397787962
C      -0.839301832391726      0.741079940879362      1.627698128246069
C      -0.007361217104625     -0.361858157218155      2.001427409069420
H      -1.696865873826007      0.975627158770294      2.238275943841948
C       1.227089230391618     -0.108836412532297      1.321837266860351
H      -0.249371046485851     -1.272253028065765      2.544429386529500
C       1.091106432895088      1.059986008974400      0.529748704698425
H       2.018386907473083     -0.818710332029040      1.103875421456159
H       1.827532740951898      1.306296152255407     -0.229979358994560
H       0.108068875121116      2.623642014087260      1.662262367431909
H      -0.541697671827423      2.472782553266308      0.123891948928705
C      -0.676304249371433     -0.054507258409635     -0.940173661666953
C      -1.723830024329035      0.042608745471783     -0.008220284422098
H      -2.317702905960984      0.933480746250108     -0.196871037915180
H      -2.176780786245818     -0.881734458461680      0.345780695665042
C       0.050038922760538     -1.296455874444412     -1.123509545986349
H      -0.530595469147335      0.707181501498775     -1.681979203126555
O      -0.146210093673438     -2.184149515342357     -0.308986583676828
C       0.948891535888183     -1.477892419466468     -2.354346194561633
H       1.300011191389711     -0.499721605169409     -2.680889771042550
H       0.560518160696120     -1.738495127206638     -3.323473223002999
H       1.744697791091987     -2.105683536059141     -1.920341189597561
