22

C      -0.054358877019910      1.818292036192819      0.978000695886790
C      -0.885130400871850      0.756600608199369      1.646415371213540
C      -0.008396110223220     -0.265458063823011      2.008732505439470
H      -1.784426625062059      0.987833627452589      2.204802340157830
C       1.193718366157370     -0.113870754970751      1.298685222592910
H      -0.262245946600830     -1.114433596881321      2.628290239716101
C       1.120422421893490      1.020418721708359      0.528661857645340
H       1.993221352956530     -0.841390399401481      1.280148592263270
H       1.895057938714940      1.397305068361709     -0.125190678932640
H       0.287890694966570      2.516734345025499      1.757598249308760
H      -0.555458155466170      2.403955993682249      0.209272238163790
C      -0.700163294135400     -0.034993348405441     -1.014957068363840
C      -1.714487045356380      0.033886352619679     -0.075679580887860
H      -2.449619693011539      0.827769164010049     -0.151553653547790
H      -2.075477670016270     -0.904102434507051      0.329249252262580
C       0.037995126778830     -1.276911931387211     -1.164452438837120
H      -0.512837261450720      0.773727152348119     -1.710901131945380
O      -0.108000216134870     -2.202618371901111     -0.379100983467770
C       0.980229405324210     -1.405757663678131     -2.335145058936740
H       1.363078896085740     -0.442711049025371     -2.678088653987070
H       0.434233439777440     -1.866991205201431     -3.164376608054930
H       1.804753652694100     -2.067284250418121     -2.070410707689250
22

C       0.045367747142037      1.848076752676392      0.986542520826151
C      -0.941771726277526      0.721577752918378      1.518949803016250
C       0.030256669743319     -0.227659484590397      2.115651181147395
H      -1.646359540880831      1.099737224417050      2.275241616773575
C       1.193459358470555     -0.128122273707064      1.404377691079371
H      -0.048259775000025     -1.068082213667691      2.811205210196959
C       1.117605463305041      0.925320316435525      0.478809834714303
H       2.022881265883854     -0.807587537069685      1.396734893858410
H       1.918624143345316      1.288746673063900     -0.142188595944484
H       0.349394534076247      2.551217025627081      1.752025400021357
H      -0.355977008902227      2.541803378801246      0.228073905418459
C      -0.676220385482722      0.062112511488363     -0.903564061265573
C      -1.700198061851096      0.196656335217176      0.119618058111608
H      -2.515160552562709      0.864378959415467     -0.067729299732688
H      -2.143812173822400     -0.774378163180758      0.401847391203374
C      -0.007905543987293     -1.196944667662850     -1.021043097040335
H      -0.639067129401979      0.783011445479090     -1.690267217795631
O      -0.224581281179963     -2.129301293527088     -0.252182824664255
C       0.963247307956146     -1.416451580052204     -2.176065596494782
H       1.564593437525459     -0.574493206916218     -2.515614266125345
H       0.368406815202193     -1.625299917295382     -3.071301512417203
H       1.568879738123087     -2.300426497535383     -2.066332989788632
22

C       0.070066120059210      1.875234205479360      1.002187631372447
C      -0.892239212344250      0.899273611196675      1.608963449555439
C      -0.069000797448626     -0.185895225553775      2.040473045616791
H      -1.642110430114415      1.311946161226044      2.328115388480606
C       1.162156564723523     -0.166640096283025      1.439420005906633
H      -0.386175637472487     -0.959752594483482      2.781395995674713
C       0.956007805056848      0.815488636458224      0.301236661199213
H       2.038482212220734     -0.789472120582014      1.493382596382089
H       1.697730209854858      1.241784847029877     -0.377930357869743
H       0.591222710621622      2.453743228308466      1.742535782358626
H      -0.448174820583580      2.673143506363357      0.462930003565725
C      -0.395039828079886      0.177032810052768     -0.653739605189175
C      -1.538976720463644      0.314511558200835      0.308226826751615
H      -2.283220377718287      1.029740766614852      0.037990326683083
H      -2.073836095169997     -0.619749811650944      0.553701309483208
C      -0.073300382270519     -1.240721586941559     -0.935611932400258
H      -0.590081943821002      0.785524585196857     -1.504111474024880
O      -0.366786590783541     -2.086056414675495     -0.105164530882984
C       0.914730267783327     -1.466440101393477     -2.037205651637474
H       1.643762454214467     -0.677286109322179     -1.874823087842139
H       0.623842368511650     -1.248809974845888     -3.058832732125736
H       1.357535433586754     -2.434495274053714     -2.033089048456945
22

C       0.174076468661444      1.986560282142218      1.031801401109031
C      -0.894187726217126      1.031282293438827      1.718354371659409
C       0.020414348910790     -0.103211746993749      2.246646203842190
H      -1.676292769119385      1.394254006720972      2.440116892097077
C       1.018976676477432     -0.219883865148776      1.284974577184661
H      -0.220369682378594     -0.936551249033965      2.926625536905344
C       0.893513693043631      0.927553551883172      0.349223904829173
H       1.771953894938756     -0.947816017160411      1.062948592505170
H       1.742753317846625      1.233842175466385     -0.288232635769234
H       0.850748943175650      2.400736299789108      1.766554463694023
H      -0.079503101979758      2.899921568518069      0.544759516600403
C      -0.394150151458743      0.184306463589734     -0.553765636451088
C      -1.560471931034363      0.506155767972460      0.397900883782418
H      -2.210325675972154      1.289786363972026     -0.003754582647595
H      -2.143011221906337     -0.436045967710753      0.586688651724057
C       0.042397529162450     -1.242180305661464     -0.693518714153202
H      -0.576437572832128      0.702273066031083     -1.443672437053774
O      -0.511067353505929     -2.179053301799305     -0.107038532555479
C       0.932632757977626     -1.568688822633502     -1.913050943257878
H       2.003545181482564     -1.364291264272982     -1.842645991485147
H       0.642581374228132     -0.998502773488762     -2.796096849158054
H       0.682511142505001     -2.586397726069329     -2.121043050878753
22

C       0.190406811777965      2.029898618506012      1.143606099727811
C      -0.836174120098737      1.150286815500249      1.786843116098537
C       0.068703221604651      0.039787495124824      2.238102670891412
H      -1.447217578705115      1.405628982781838      2.656715881166641
C       1.059502039434876     -0.170260671865117      1.355749893948474
H      -0.130094958940043     -0.649487742063839      3.065908798424871
C       0.815257069058910      0.858654600140920      0.283262410468481
H       1.689511474057886     -1.006851797201965      1.442044278574027
H       1.714601106739899      0.954350506872889     -0.395026878322721
H       0.832675514783546      2.455846220298749      1.905134468926458
H      -0.194871879436668      2.978313610597315      0.721743186972869
C      -0.319666066187349      0.268195360169474     -0.442522879740933
C      -1.526478773290835      0.636279732616303      0.491087629928900
H      -2.106744040515687      1.369266840316589     -0.051325253623891
H      -2.101227649409979     -0.308362197146270      0.602059937803039
C      -0.148218243582099     -1.252134651408983     -0.725274079698513
H      -0.373256182400888      0.829886666906063     -1.334724538270872
O      -0.550632926876584     -2.195831690133753     -0.061511297825960
C       0.863263902296493     -1.709062349178170     -1.708018556668497
H       1.813586886065420     -1.722441701594823     -1.141516287679464
H       1.106257432756867     -0.987413828068004     -2.487883657066051
H       0.579056002021929     -2.639552891495557     -2.142508238823627
22

C       0.326047883062769      2.024800381055464      1.054088850860190
C      -0.686265260879646      1.170948846638392      1.724768303992892
C       0.055621128323935      0.018961896645203      2.341668290202885
H      -1.377026776701325      1.724878733059822      2.390507878604144
C       1.169186176067062     -0.035099850182578      1.539858793176875
H      -0.442362698715313     -0.660748186540656      3.028519700260615
C       0.895358408628982      0.885548373202024      0.356317298616792
H       1.928802287691700     -0.728403340128142      1.721596479138769
H       1.837117331522955      1.053296392688365     -0.250466224337325
H       0.887747503793867      2.684453348249195      1.676582992358852
H      -0.130486518584451      2.670606429431743      0.287297687200855
C      -0.463002917120122      0.234259062178618     -0.468428541103980
C      -1.565730232066230      0.581965831379781      0.575224850819464
H      -2.137178004078893      1.415914604981441      0.130418573836586
H      -2.271188920594734     -0.220715176310696      0.916160299969589
C      -0.193368450371579     -1.270422869649961     -0.614583856921968
H      -0.648000515186904      0.693640616975357     -1.405230260292275
O      -0.808009405448849     -2.023185616373378      0.125126087247399
C       0.916865586771106     -1.712063673374865     -1.598580788705967
H       1.789400182490330     -2.055046391905756     -0.997489128640771
H       1.316493980709628     -0.940233055888030     -2.252772970518142
H       0.517610189505595     -2.491834736434008     -2.221325899111402
22

C       0.319755947010564      2.012823117881615      0.963169588493061
C      -0.844661668673906      1.262667897904309      1.770583937039079
C       0.156716442712387      0.158123688588637      2.384753394789728
H      -1.618264893747552      1.802399499705095      2.373323498297732
C       1.239553785556093     -0.057403477873960      1.550618796256865
H      -0.065183305641448     -0.245564256943827      3.383200027369424
C       0.928280931099445      0.771674142928852      0.302920275077682
H       1.968628600491175     -0.801401908106344      1.655224229868022
H       1.781899774179565      0.852952813144056     -0.438529652898781
H       0.997066274706948      2.683228426884037      1.453779117533963
H      -0.014044010699987      2.658196040370933      0.122805557934966
C      -0.289389235323466      0.275571051598192     -0.309496848766652
C      -1.486679061576781      0.579572262926938      0.602172217228449
H      -2.325691353457505      1.079682474162394      0.058665188082523
H      -1.831113438127189     -0.464541025255162      0.891146020232905
C      -0.229504244340941     -1.230749271290597     -0.405959292698966
H      -0.367164197773554      0.607116307735435     -1.313306377320767
O      -0.966025513813664     -1.931911523547035      0.194350604646893
C       0.780199557715781     -1.653020325483165     -1.359249708613293
H       1.479644637078641     -2.266577752736564     -0.750163585789177
H       1.328979691989542     -0.910808099887904     -1.922899802226312
H       0.285369871845602     -2.321188793881321     -2.042727906027570
22

C       0.361549946041328      2.182259732540298      0.969328506160857
C      -0.577138717379237      1.327168564828813      1.790733447125891
C       0.237030905735310      0.411163892874094      2.508122281392138
H      -1.153726615259166      1.954145222262307      2.499176683702981
C       1.134648623537706     -0.042477891729510      1.585462056242766
H      -0.174300045226892     -0.138630362251801      3.368449643559784
C       0.947865104808312      0.884183855255578      0.323486431417439
H       1.867252475381584     -0.748144036659045      1.775895550942155
H       1.892115154190563      0.925901975442901     -0.289678870083100
H       1.000094943571365      2.828304641454625      1.584274077168339
H      -0.178532397087198      2.976017500730431      0.423810044950202
C      -0.418896401934236      0.273416350100985     -0.304313530481370
C      -1.518791925060076      0.669508250747415      0.678115808413175
H      -2.144238529392419      1.518899480531763      0.326202797548050
H      -2.081305638629271     -0.262919836336311      0.951713000494758
C      -0.348875321116333     -1.335980800406928     -0.406533576611415
H      -0.502369265058019      0.600989519777554     -1.318836512378981
O      -1.060925228056010     -2.011544352334594      0.268471147943562
C       0.805742277996424     -1.921050720536395     -1.188513470303733
H       1.374348327607162     -2.640736795432196     -0.559511461237729
H       1.396012827137787     -1.113627182913534     -1.606803999525125
H       0.504644137903147     -2.431371218601843     -2.078287899109979
22

C       0.383612958107422      2.150800742933358      0.917574282229490
C      -0.611469266880156      1.661598631616084      1.939243178131584
C       0.218881929034645      0.457410257354556      2.497932362146401
H      -1.109754031967315      2.255352949384998      2.716167863475190
C       1.170361378858727      0.158909100218674      1.580807614706230
H       0.427065238529094     -0.127555417372275      3.395602816392101
C       0.788874687188029      0.852366493584457      0.340478616831335
H       1.892425028424773     -0.573849330188502      1.554981736872345
H       1.665569150275252      1.024948022299276     -0.339419594824005
H       1.316869865517591      2.562965429030813      1.366046497856825
H       0.151889680306171      3.006936799399540      0.252764376299244
C      -0.437534595529022      0.177608295497173     -0.181945806246342
C      -1.419634011588576      0.856401369730522      0.835154959136282
H      -1.908616013469924      1.584990109967651      0.155166507602387
H      -2.132280412783921      0.191861261450556      1.399584496678653
C      -0.311577502498551     -1.345638900196569     -0.262076046487784
H      -0.638655922297413      0.461482469294574     -1.208256705735899
O      -1.134652171973312     -2.097356789534898      0.233558007943616
C       0.806851514424273     -2.112420590964258     -1.044543325151918
H       1.017611945239205     -2.989833245861058     -0.399014971616161
H       1.656636555100266     -1.528378805005701     -1.390159615947481
H       0.381521657227310     -2.596181828173482     -1.935533583571419
22

C       0.396335114796767      2.285949862445930      0.790921544282937
C      -0.559040224079384      1.577010851303303      1.786654040360625
C       0.403840535155708      0.645332450018445      2.615547509711109
H      -1.126813584004032      2.104354655906683      2.523546125402288
C       1.284556452191507      0.090510206441760      1.691247643351931
H       0.106628448985201      0.244868211677044      3.602809111480301
C       0.988045106068652      0.846800679772991      0.292970623321496
H       2.049660979769251     -0.599799801975512      1.725303324630999
H       1.708263812714987      0.839045612691729     -0.534833336286692
H       1.116843404763223      2.972965071771481      1.289731888656354
H      -0.147862750987265      2.955017882194097      0.052811194332919
C      -0.462971352886630      0.210880319668564     -0.054571127321029
C      -1.530015379837249      0.812127287943194      0.889509243651301
H      -2.211645446792530      1.518167758510104      0.346626974921942
H      -2.198638885358015      0.086573143377600      1.487355585075675
C      -0.412966964734665     -1.360596839146161     -0.045796347757042
H      -0.788021650630894      0.528930978751662     -1.086598596491068
O      -1.311667207950238     -2.136043442918370      0.258519953451919
C       0.765861101755109     -1.994496534744072     -0.798571891545738
H       0.910047330384811     -3.001514104094202     -0.381663575856238
H       1.682492036761420     -1.411686748595179     -0.978422856417341
H       0.368346916316607     -2.226740081728761     -1.809768552542657
22

C       0.455836492069845      2.108591625465019      0.773214394009486
C      -0.498042029583210      1.672384606927362      1.856099134334428
C       0.415913073564078      0.812059924817149      2.571593226851659
H      -1.011605400105922      2.474138213929091      2.373873283909275
C       1.307168941595304      0.304137829531005      1.681399658465293
H       0.386589181084525      0.664176716856205      3.644495267034150
C       0.861452570911875      0.721232511194790      0.356225843034917
H       2.123493054832813     -0.295755536148239      1.853951485886819
H       1.531778214391432      0.709647212840874     -0.479797996220092
H       1.344196260424413      2.779791663254261      0.933668132075305
H      -0.077466176303695      2.575106257848962     -0.099865833668842
C      -0.422825249976480      0.098365727209307     -0.064807640916630
C      -1.394277896938235      0.661868530209847      0.970960405072483
H      -2.352753864037195      1.101557062325641      0.602931021158996
H      -1.748849698823004     -0.297883599371479      1.496902659810011
C      -0.519573733316101     -1.417720316359872     -0.089639083285031
H      -0.767631157252278      0.506631983077720     -1.092736101534509
O      -1.493392890346346     -1.921156598984110      0.410357198617051
C       0.755519362672294     -1.900551806895683     -0.553541784204159
H       0.970741789111106     -2.941500337924006     -0.348536965922231
H       1.481539422058727     -1.174056090235435     -0.160916615991759
H       0.794518061949290     -1.819281696552204     -1.654649887930634
