22

C      -0.054358877019910      1.818292036192819      0.978000695886790
C      -0.885130400871850      0.756600608199369      1.646415371213540
C      -0.008396110223220     -0.265458063823011      2.008732505439470
H      -1.784426625062059      0.987833627452589      2.204802340157830
C       1.193718366157370     -0.113870754970751      1.298685222592910
H      -0.262245946600830     -1.114433596881321      2.628290239716101
C       1.120422421893490      1.020418721708359      0.528661857645340
H       1.993221352956530     -0.841390399401481      1.280148592263270
H       1.895057938714940      1.397305068361709     -0.125190678932640
H       0.287890694966570      2.516734345025499      1.757598249308760
H      -0.555458155466170      2.403955993682249      0.209272238163790
C      -0.700163294135400     -0.034993348405441     -1.014957068363840
C      -1.714487045356380      0.033886352619679     -0.075679580887860
H      -2.449619693011539      0.827769164010049     -0.151553653547790
H      -2.075477670016270     -0.904102434507051      0.329249252262580
C       0.037995126778830     -1.276911931387211     -1.164452438837120
H      -0.512837261450720      0.773727152348119     -1.710901131945380
O      -0.108000216134870     -2.202618371901111     -0.379100983467770
C       0.980229405324210     -1.405757663678131     -2.335145058936740
H       1.363078896085740     -0.442711049025371     -2.678088653987070
H       0.434233439777440     -1.866991205201431     -3.164376608054930
H       1.804753652694100     -2.067284250418121     -2.070410707689250
22

C      -0.042145503515296      1.811929290495058      0.974512458638700
C      -0.891995081708975      0.755357047635731      1.650853124262609
C       0.007665920472425     -0.248691243855609      2.016164644574831
H      -1.884738462527462      0.916674340988973      2.181327741074487
C       1.215883289009180     -0.096901378045748      1.308030858536961
H      -0.356798702661424     -1.109712889815986      2.634946442419321
C       1.125697805955404      1.009372063830116      0.534949256062430
H       2.028023506238771     -0.851871811009990      1.202478009780364
H       1.891646436316037      1.376261597617880     -0.087472694921661
H       0.363620125892648      2.496765234861452      1.811444748748668
H      -0.476278357658530      2.463428380765972      0.210231006187106
C      -0.708308380511050     -0.014293983239689     -1.035403214423920
C      -1.721011795028573      0.015268579068393     -0.077773974987450
H      -2.514617775179699      0.734042493140250     -0.103218055337425
H      -2.100703338487241     -0.979228534356340      0.234190190952874
C       0.016848969743818     -1.278444114368729     -1.167346652798582
H      -0.515055044764413      0.714912571498018     -1.750085934303200
O      -0.087093635669004     -2.196591522428145     -0.383707502991735
C       0.989238755155756     -1.430079598413137     -2.345328090240500
H       1.332333536904631     -0.517656411667503     -2.657079389004462
H       0.402779666356789     -1.901728066591782     -3.156576313007220
H       1.760793121356209     -2.120080118991465     -1.981431080485612
22

C      -0.027479510973896      1.811101879301273      0.974029708805241
C      -0.901522698946028      0.753777886551952      1.654421663031074
C       0.018245665936526     -0.238681379390118      2.026645641463322
H      -1.912857489018797      0.852387001727147      2.128678064487441
C       1.239890081986846     -0.088714743284175      1.320623392912400
H      -0.405029687127191     -1.071937564743487      2.617468924384902
C       1.124468431273304      0.998995244674069      0.541452347126635
H       2.025827872292764     -0.839359779157552      1.147969090665665
H       1.937433133925063      1.386638765324409     -0.097106226338166
H       0.412561955934106      2.445147239751392      1.824058126678920
H      -0.416272877751408      2.529031973899255      0.213235796079188
C      -0.718994828299746     -0.002367312636925     -1.048749125269054
C      -1.726463658501425     -0.006456806836848     -0.080853131776219
H      -2.596446105575409      0.689282577322940     -0.063682543521882
H      -2.096927531053084     -1.032506579710510      0.151786386952100
C       0.000240103329925     -1.277377402295598     -1.174655344812391
H      -0.507564702231510      0.741478061514125     -1.848548916630314
O      -0.067799467342102     -2.192593665870166     -0.385897249519092
C       0.990961654733349     -1.463113607907015     -2.349005321848190
H       1.362448476027477     -0.469749548808689     -2.683675676282876
H       0.391981526597937     -1.939505104252468     -3.142979806592286
H       1.721689305670876     -2.172140230736071     -1.918324798143961
22

C      -0.012820285861300      1.814913784644613      0.975604312224994
C      -0.910915658948139      0.751715422487979      1.654576713416660
C       0.022301093644783     -0.233099912036744      2.038140395460136
H      -1.884501682471464      0.818537822645158      2.073872375041228
C       1.261746837249723     -0.089083176051428      1.335253551649610
H      -0.394898180925662     -1.030107191496614      2.597507278134637
C       1.125924570402853      0.995085242619150      0.542102834267447
H       2.013441747772175     -0.813990954319693      1.127420138303760
H       1.960843878342703      1.397640655310185     -0.096698327147826
H       0.429351145418381      2.378327315805048      1.799972642416799
H      -0.365081751468963      2.574485219832825      0.245880903418684
C      -0.730857857124246      0.006143863688144     -1.061686825056056
C      -1.737135093960815     -0.029215403166629     -0.087111355685844
H      -2.632911990698676      0.657293913916531     -0.042589030962948
H      -2.067308158718480     -1.055327948200185      0.093015995370260
C      -0.008151703013374     -1.273530044104954     -1.188243186972686
H      -0.517769271214179      0.764048818505594     -1.903732147309768
O      -0.049882542761004     -2.189450619841217     -0.384872759161848
C       0.987923446880611     -1.493796214275675     -2.347019601855258
H       1.406574609169979     -0.446378789322071     -2.709835957886192
H       0.395903411207348     -1.976186442049664     -3.133348056919633
H       1.686038459465888     -2.206535913549991     -1.894075877882002
22

C      -0.001855146299168      1.818495788706327      0.976183839644663
C      -0.910482252174580      0.747764877973186      1.647153892944982
C       0.022829020263100     -0.227460318388077      2.046256121750053
H      -1.891059682446723      0.828518900182235      2.061142088927237
C       1.274898778848469     -0.091973259385095      1.349775400518739
H      -0.355031095421381     -1.052608695505238      2.619277207316510
C       1.133286867056664      0.999412936533668      0.536003256690845
H       2.041813183001705     -0.822418017517650      1.138717456405653
H       1.935773080702154      1.391198470213420     -0.072038685294228
H       0.444581056475816      2.344682688477565      1.807414943220957
H      -0.338055355537354      2.597434946220618      0.294664790747995
C      -0.742762414420559      0.013299772214123     -1.075526109603528
C      -1.752144332631382     -0.047985574246551     -0.098405861844321
H      -2.601756426736020      0.623022445699914     -0.038568490369143
H      -2.018259137185069     -1.080665668664361      0.080877503824365
C      -0.008589291191763     -1.270274547791068     -1.206592023250503
H      -0.562311261325356      0.744700467131452     -1.878343256735415
O      -0.033612394788562     -2.184005398651564     -0.381624175200091
C       0.982634153281135     -1.514089603056503     -2.340534105536806
H       1.426166966184736     -0.545151056223097     -2.708442574038352
H       0.414002441235009     -2.011014278291796     -3.145612960179429
H       1.672331219382951     -2.231983703845302     -1.900559091188307
22

C       0.004126267911187      1.819322490266255      0.976733800393615
C      -0.900727066168986      0.744897251426669      1.633536579091578
C       0.022477451580410     -0.221723457159328      2.051942229313295
H      -1.919144989156072      0.867629624793957      2.088679043592086
C       1.277029880632161     -0.095898809013839      1.362506806889584
H      -0.293900367840273     -1.122280831302428      2.670488897356341
C       1.142055944535785      1.006768808975194      0.529555688196736
H       2.086365766703290     -0.855480480718351      1.190844541023145
H       1.922787381323474      1.393481371435084     -0.072606839252603
H       0.470612168400102      2.355866953912174      1.864347269501945
H      -0.352973066659512      2.610585198388276      0.327585294429897
C      -0.756415963260111      0.014517057140991     -1.085407303217240
C      -1.764640020521110     -0.063113382430535     -0.116126931347174
H      -2.573849795200561      0.621651964798730     -0.051334944930410
H      -1.969245864152879     -1.125202331396566      0.120963799836832
C       0.000376167247895     -1.271250533387582     -1.223788698258777
H      -0.622990508938405      0.732036642447360     -1.832158038645537
O      -0.018597929574369     -2.175487129035422     -0.378631884879915
C       0.971663397719188     -1.529681756800777     -2.334036398522721
H       1.446759140422477     -0.691650330476187     -2.699034698854295
H       0.445441906418488     -2.045461227849655     -3.171053006689855
H       1.686843420801917     -2.259333639896089     -1.934852395892245
22

C       0.009234314231092      1.817698554108197      0.982428610687183
C      -0.889019479995393      0.744102349435153      1.618801010499459
C       0.022000101201381     -0.225593506845984      2.061239810585606
H      -1.881780249959818      0.916858747517251      2.114881808734869
C       1.270442366064334     -0.100368592654526      1.370026866846203
H      -0.208532731639736     -1.136524320913074      2.691516226615219
C       1.149256924287093      1.010344293410726      0.526992270855191
H       2.092230662010611     -0.860814259870892      1.289867198518213
H       1.957053876778874      1.413476950409651     -0.115194956200376
H       0.466533013582913      2.367582308675780      1.902336224931909
H      -0.407257041233117      2.621146157267249      0.338013181159658
C      -0.768854328121324      0.003863731971812     -1.087864840204855
C      -1.769696994840404     -0.078954037320554     -0.137461692356462
H      -2.581679488439546      0.664162955619310     -0.069695716777429
H      -1.926660055345674     -1.141461286278119      0.194186813945887
C       0.014040128795603     -1.274688394773263     -1.234012447650557
H      -0.672794862183873      0.794045836198117     -1.840613386300409
O      -0.006706913109685     -2.162039921563234     -0.378261832999465
C       0.955195127902352     -1.555227356857091     -2.329307846981326
H       1.521862410606130     -0.727358022568405     -2.743837986431256
H       0.488936703503534     -2.071914471775923     -3.185174776457957
H       1.706484329393199     -2.274647809531536     -1.971548398764629
22

C       0.011285601826976      1.819083628579991      0.995936719727432
C      -0.877195053661198      0.744811959777974      1.606823828189679
C       0.019710793792340     -0.236973052473964      2.070994457290823
H      -1.778722519228760      0.980849355134518      2.121455222320337
C       1.258063278004145     -0.102429829474702      1.371520547369197
H      -0.122828607290458     -1.085927857665511      2.687933069882639
C       1.162291693258186      1.011736547979572      0.526367930464177
H       2.055454295019192     -0.820693222591980      1.409034851083717
H       1.965372152155370      1.423744247289230     -0.147756892478555
H       0.418156235094005      2.359920672551922      1.884914248834774
H      -0.464300621532955      2.595679699054039      0.347043741176859
C      -0.777566843445188     -0.014692322559494     -1.094056688990369
C      -1.772512763084741     -0.097388961221088     -0.157499574282577
H      -2.574441824572619      0.693023003344601     -0.096813259847061
H      -1.900527056723374     -1.095865131494419      0.277271374109836
C       0.030012488099301     -1.281048086242515     -1.235882303580988
H      -0.722390644195775      0.868986727941485     -1.838134684973164
O       0.003793595293297     -2.145233412256115     -0.378354733689150
C       0.945177119481716     -1.584546806462928     -2.331127539340681
H       1.591102508755139     -0.715266788842484     -2.799074974345152
H       0.512776321942436     -2.084563818661058     -3.202549862892211
H       1.706404436864121     -2.285086631460532     -1.996759529924477
22

C       0.008178810159467      1.819609880014398      1.010018104655521
C      -0.858708703177538      0.744862596152493      1.599335560403446
C       0.020225288806135     -0.244410559656018      2.072432415170050
H      -1.720303485922809      1.062808113884147      2.150666940578478
C       1.239418389293311     -0.102391348231481      1.369443661601604
H      -0.082513721524021     -1.067022245048177      2.736996984517979
C       1.181409586290664      1.011901187331807      0.527366790340405
H       2.035025851461802     -0.790464207171383      1.525330969798673
H       1.936404602646280      1.414916323442690     -0.144886515221183
H       0.352117679549262      2.361926430738675      1.863051549900576
H      -0.499273412424607      2.535873649829843      0.356148060743003
C      -0.782821653097317     -0.032753443284071     -1.107925053170345
C      -1.775580796023654     -0.112286900887096     -0.176044529382214
H      -2.533835685881331      0.670333707824966     -0.142087669395583
H      -1.899233358578723     -1.032622262107042      0.365273649302540
C       0.045490878797182     -1.286350437784774     -1.232624879114371
H      -0.762857286664434      0.875125356559513     -1.766025082397685
O       0.011955870775333     -2.126323686250566     -0.376513792549224
C       0.948551976303280     -1.604643199210825     -2.347573214171343
H       1.579398503015717     -0.758006675276558     -2.801125933821173
H       0.503243570943430     -2.097678492473930     -3.224712147461601
H       1.709261298750583     -2.315784404967718     -1.997418966003035
22

C       0.000747959554438      1.815070874685965      1.018124905703912
C      -0.835947422420093      0.745416965189128      1.599777129910652
C       0.022809781079308     -0.246402590669451      2.065318617160961
H      -1.707048042307208      1.145023512376767      2.202944209158201
C       1.217776343504004     -0.100747592159100      1.364725287891953
H      -0.085211888065726     -1.081409690326482      2.815928475899832
C       1.199343156877111      1.012454724625781      0.533335652609379
H       2.062821697341375     -0.789859193932314      1.620327817918155
H       1.927819157424629      1.398334443934617     -0.149672574548064
H       0.311618260898313      2.405278465376816      1.896692649552238
H      -0.518747874506340      2.470209410020916      0.337300003048223
C      -0.786909726373361     -0.052532066217743     -1.124185663209744
C      -1.776263585477603     -0.122430605869725     -0.190147053172934
H      -2.514112243117167      0.635468448634014     -0.202591665320620
H      -1.922926801923459     -1.005822916989313      0.450312225500818
C       0.058565746244195     -1.287553357027965     -1.228697705907879
H      -0.779386101257789      0.839217286862663     -1.685667638432214
O       0.017558097817579     -2.109234991523572     -0.370348972956193
C       0.963074371390609     -1.619177015762886     -2.376279451557823
H       1.509044762357886     -0.825204955994197     -2.776002065007150
H       0.469075139013578     -2.113403658976398     -3.241293107892957
H       1.703607912001832     -2.354746892099562     -1.989735473141370
22

C      -0.005104717046298      1.807594143532641      1.022006976977931
C      -0.819598533497030      0.748892873622808      1.613238966525170
C       0.020853088187623     -0.248262567873282      2.060415614916849
H      -1.672944609870617      1.181308653288354      2.218179407248159
C       1.206098095700313     -0.101994042323645      1.359407057742477
H      -0.114477593820142     -1.043971931161773      2.841649317112714
C       1.210457358455255      1.012628212425238      0.544813664423323
H       2.072221094642702     -0.769563127184433      1.667068961080765
H       1.957491740881042      1.382782157698225     -0.181908487287662
H       0.279464645929851      2.455012895240226      1.935965661742509
H      -0.537819046110966      2.423384015850831      0.284800975761512
C      -0.787927026003000     -0.081228276031711     -1.134793293609798
C      -1.771556165434395     -0.133395916970616     -0.196788708050624
H      -2.556138409659175      0.640509764136879     -0.257753016907332
H      -1.960451815639191     -0.986044991948310      0.484687261437866
C       0.071458841334804     -1.283396330594027     -1.231207499790633
H      -0.766434471848377      0.852403320907188     -1.683030790358846
O       0.022381560448713     -2.096462724087524     -0.358557290882972
C       0.977268226310639     -1.640213595059837     -2.405101098781222
H       1.489235738528753     -0.798352248809585     -2.805060171722241
H       0.422568180124637     -2.124301848641356     -3.240985379977477
H       1.680683542152378     -2.376887409661013     -1.987705260236192
22

C      -0.006515558009244      1.802435061647812      1.024033809911294
C      -0.812305101893204      0.755400881116445      1.639510613785904
C       0.012351081729996     -0.250549992865803      2.058911088351011
H      -1.629085538642258      1.150731839872280      2.196416675821103
C       1.207870052485548     -0.108274331272289      1.357210296557483
H      -0.157885106147435     -0.965758878817009      2.819308542226763
C       1.220193166179155      1.014257719526360      0.557883085103579
H       2.044217988634553     -0.719672839101423      1.641479996350464
H       1.973103929070988      1.352094668732204     -0.194339738086713
H       0.238462841770218      2.472274773639866      1.910638598498468
H      -0.545588826004191      2.382001912805631      0.233690327964893
C      -0.786119352712877     -0.113354210135551     -1.143774474149383
C      -1.769523073307564     -0.143576866571919     -0.198318591927278
H      -2.596374511678798      0.634806700917021     -0.305565052755306
H      -1.999286066564312     -0.969930589841473      0.458424678806441
C       0.086130322837911     -1.275415906548379     -1.240546530430834
H      -0.728341959212114      0.858656434511176     -1.736604739469558
O       0.027183858474729     -2.087494261056678     -0.341078472516776
C       0.987320774292183     -1.659503570330991     -2.431880090611792
H       1.508826749793982     -0.718835247709559     -2.872605235407300
H       0.378169889700419     -2.127629712143033     -3.221633710778661
H       1.656427270339693     -2.389291173051567     -1.996431608901286
