22

C      -0.054358877019910      1.818292036192819      0.978000695886790
C      -0.885130400871850      0.756600608199369      1.646415371213540
C      -0.008396110223220     -0.265458063823011      2.008732505439470
H      -1.784426625062059      0.987833627452589      2.204802340157830
C       1.193718366157370     -0.113870754970751      1.298685222592910
H      -0.262245946600830     -1.114433596881321      2.628290239716101
C       1.120422421893490      1.020418721708359      0.528661857645340
H       1.993221352956530     -0.841390399401481      1.280148592263270
H       1.895057938714940      1.397305068361709     -0.125190678932640
H       0.287890694966570      2.516734345025499      1.757598249308760
H      -0.555458155466170      2.403955993682249      0.209272238163790
C      -0.700163294135400     -0.034993348405441     -1.014957068363840
C      -1.714487045356380      0.033886352619679     -0.075679580887860
H      -2.449619693011539      0.827769164010049     -0.151553653547790
H      -2.075477670016270     -0.904102434507051      0.329249252262580
C       0.037995126778830     -1.276911931387211     -1.164452438837120
H      -0.512837261450720      0.773727152348119     -1.710901131945380
O      -0.108000216134870     -2.202618371901111     -0.379100983467770
C       0.980229405324210     -1.405757663678131     -2.335145058936740
H       1.363078896085740     -0.442711049025371     -2.678088653987070
H       0.434233439777440     -1.866991205201431     -3.164376608054930
H       1.804753652694100     -2.067284250418121     -2.070410707689250
22

C       0.006885314569977      1.916877771564017      1.062275860525370
C      -0.744812263061244      0.934081086703343      1.857799517933869
C       0.072829493782157     -0.132639592199113      2.149615058946728
H      -1.724352022531581      1.039102266298460      2.372937505039637
C       1.248106512963624     -0.054966209796512      1.357079619938843
H      -0.267831749379413     -0.902510572057095      2.825070720973784
C       1.211873618467985      1.130017304175724      0.672807764250811
H       1.947145536463544     -0.864975976087712      1.375691322314842
H       1.957316248763106      1.397521813652419     -0.150598512481325
H       0.258845336279638      2.768731894599336      1.727272849360758
H      -0.502847428157789      2.335671029864002      0.179470238391804
C      -0.763451397719546     -0.075843659648363     -1.007885526181649
C      -1.859775416637790     -0.198000399229675     -0.257675436715830
H      -2.705436614474809      0.555675244411364     -0.150818559392957
H      -1.873938702849593     -1.163599307345840      0.330515284483085
C       0.135635571881799     -1.275660890647146     -1.139163256303955
H      -0.597618519606839      0.796546649578674     -1.567618034237453
O      -0.012637634509508     -2.168351046004164     -0.300747780377463
C       1.178553101695676     -1.483963849235834     -2.233554382861095
H       1.516428196516053     -0.557114147404996     -2.731959506153451
H       0.801116031427727     -2.135530309906330     -3.074330017152525
H       2.152962593701350     -2.004904798926843     -1.821545885103398
22

C       0.047969549568235      1.984945418832776      1.216835445955269
C      -0.525499070186413      1.133880435629614      2.286031908094877
C       0.162806357506167      0.031633619730685      2.394812629696021
H      -1.392546938260023      1.302235201662834      2.911663672510840
C       1.341306947481562      0.073320386431030      1.563322816513662
H      -0.124012814906993     -0.793375897002990      3.026888793519481
C       1.272379653334159      1.221148078616051      0.858434885848278
H       2.186778182438764     -0.698463111854748      1.620474491462699
H       1.926440849385242      1.639272763854422      0.158672083021556
H       0.008634323198216      3.078754743509092      1.389840686524616
H      -0.696827541959953      1.895606677287326      0.344347069278344
C      -0.880863988652022     -0.367787361115794     -1.336029916016573
C      -2.058828773779700     -0.197916065998503     -0.707699582052893
H      -2.561498550814155      0.758035430953028     -0.692058048356864
H      -2.532431554115193     -0.900111730823712     -0.066903098627588
C       0.193493649852465     -1.471970369198330     -1.113199934588574
H      -0.464484632473135      0.370035515518975     -2.087411014842369
O       0.210252469133777     -2.344772597334560     -0.217897195033354
C       1.302684478847259     -1.319850467060665     -2.111082143727490
H       1.344524322018886     -0.209437791874933     -2.368336589513526
H       0.980532790464258     -1.888950338046625     -3.075956319987470
H       2.282800544183722     -1.682388839372896     -1.687673502107469
22

C       0.053656638390801      1.985127760682863      1.381972757447606
C      -0.425696925381621      1.280650869483064      2.576348367210983
C       0.425129960492936      0.230780964596972      2.824042752287773
H      -1.331345371084976      1.581165276918870      3.139936148954030
C       1.436105107309490      0.172270761395132      1.785434116291822
H       0.266624465697026     -0.459688157524793      3.645531160727407
C       1.358256462731451      1.321557719908596      1.020770275616026
H       2.256524465432732     -0.491548713495308      1.807730275003814
H       2.111150664825797      1.796934194639694      0.408389236454771
H       0.182961636875917      3.107884483131524      1.571234918984232
H      -0.646899243286640      1.615604907164241      0.537423290605424
C      -0.947367712489724     -0.605006650153691     -1.633687914815150
C      -2.137122382884736     -0.582403389928779     -1.058399950905353
H      -2.984209057719768     -0.083730414717876     -1.516614967180207
H      -2.182745750214857     -0.997510166424950     -0.037827764318584
C       0.258833763380941     -1.398832084651187     -1.184455542502453
H      -0.902024535246570     -0.025372312748216     -2.601525520332308
O       0.097088831781645     -2.235123865686363     -0.290124943214713
C       1.505520376276670     -1.224561332527709     -1.966627223855719
H       1.746163334667236     -0.080182651354299     -2.014955561455763
H       1.261524581358100     -1.574212226717166     -3.023668840225930
H       2.355592219779768     -1.826579101306614     -1.611042979149232
22

C       0.136487754766151      1.975758587366918      1.587900757208779
C      -0.354826854578809      1.300063080661080      2.762840052157975
C       0.560122447742968      0.395297346408294      3.154560546597883
H      -1.232458229910739      1.696266353904883      3.239503327723539
C       1.661523414147558      0.433478155364962      2.139005419469998
H       0.457995143240329     -0.333849683644575      4.005812787223118
C       1.335723111999596      1.253516466583026      1.150812746537349
H       2.589790400280177     -0.143597498343146      2.280406285670183
H       1.992577800097827      1.411368515153562      0.229646494375370
H       0.392945097832037      3.087184091723615      1.804919600396324
H      -0.636907714055611      2.241535945730579      0.810219652952605
C      -1.004424282757844     -0.835669449032354     -2.023213099315827
C      -2.131955240775393     -1.003777062579170     -1.305613875423729
H      -3.075073347507308     -0.460460420923513     -1.624595680268494
H      -2.147987580322107     -1.623924270768464     -0.370247918056979
C       0.218644483444857     -1.379181962063903     -1.392709361102999
H      -1.031798047134948     -0.322176921367642     -2.923183208955748
O       0.099687892306921     -1.943833017141232     -0.336457788022736
C       1.598150462761428     -1.151749787526460     -1.784500598354813
H       1.865294465544348     -0.205964103490329     -1.192831423874381
H       1.726728837294517     -0.831742034339592     -2.788302558253604
H       2.256395543914239     -1.976151251739431     -1.470166991722704
22

C       0.153044264623336      1.975357851804631      1.684957258127364
C      -0.315619430794237      1.368507523025451      2.969031175018716
C       0.691521437756041      0.625528547426313      3.492661719286218
H      -1.303477993461793      1.701574707546178      3.321795968513161
C       1.773394017458997      0.594296606199378      2.501401868672771
H       0.688274021283864      0.012959272275404      4.388897179846329
C       1.546665559567350      1.456545844842370      1.489286003555039
H       2.699986069778367     -0.017300017097700      2.455280720887282
H       1.994613861891705      1.480459854667611      0.529965502655263
H      -0.071644384866510      3.078082186249908      1.767085623479189
H      -0.518072488205013      1.489185780556636      0.987053095555800
C      -0.907595433899999     -1.056632065321012     -2.203646615349170
C      -2.185876399973098     -1.327306633403617     -1.828401168025414
H      -2.949047397940150     -1.151855241120792     -2.581222006724097
H      -2.536776484105005     -1.602063760428769     -0.837522937333040
C       0.237633705726213     -1.355108851874040     -1.305720030786738
H      -0.683310831247631     -0.630716191510284     -3.213723434007180
O       0.084403129076573     -1.965152656242328     -0.283432686033385
C       1.595154041310630     -1.007069218993052     -1.888499085622906
H       2.222783315254982     -0.667068487174854     -1.181583905485034
H       1.430381537140475     -0.213411454066129     -2.603505038026954
H       2.096393533228057     -1.850234397263087     -2.362216995479992
22

C       0.232689999103827      1.904804923950098      1.825959179846938
C      -0.234431321397113      1.486751236600224      3.117037431401280
C       0.767277187859188      0.779365382267846      3.763174051467937
H      -1.250444807744534      1.723059813890653      3.468766604404033
C       1.992801873939902      0.858582928493776      2.930964059769393
H       0.709539822707613      0.153425231627280      4.658601906890264
C       1.671052099131008      1.614181213702631      1.802432619042555
H       2.961159435246898      0.433675323395830      3.072482260985707
H       2.412663602938648      1.827409480520227      1.063000011664848
H      -0.080403964074774      2.910728189116874      1.618764814830092
H      -0.315451726465740      1.347806157891526      1.101592201626865
C      -0.921236656186976     -1.289475020593790     -2.451124270242402
C      -2.173662473670691     -1.665247825699013     -2.317792755323778
H      -2.844621066833831     -1.529944469742048     -3.173495719029350
H      -2.585649898391452     -2.037238641742629     -1.363673840633449
C       0.195057689806637     -1.426315107112603     -1.359240428121505
H      -0.619933570655338     -0.873216424744750     -3.473620551559791
O       0.077619333071128     -1.925659636156167     -0.286529324425112
C       1.520403690217339     -0.892931337557102     -1.883786134590387
H       2.260852023855728     -1.062125245660813     -1.144019717736721
H       1.325000203435311      0.161716286713891     -1.953919116869417
H       1.757899626460432     -1.177130624127388     -2.857374375334536
22

C       0.320457838459438      1.939525627818899      1.958888733609560
C      -0.159143780794427      1.393509843119670      3.209573004884316
C       0.838920464497812      0.999731167416975      3.981829214282965
H      -1.220045299482220      1.385363761351290      3.371007458072734
C       2.136696876185334      1.211999128879863      3.294290608780821
H       0.603778187642506      0.539204098952295      4.957770015232590
C       1.811752495367863      1.703893463337773      2.125266667730233
H       3.151036152436543      1.059491607344032      3.698794387419575
H       2.558362077236552      2.220439304611475      1.406545896479633
H       0.277393811518401      3.024639110420072      2.000304524808056
H      -0.184461794686965      1.743413723465265      1.042866957817803
C      -0.828448089044654     -1.497882999446849     -2.717644768995523
C      -2.029747761171737     -2.094887722049869     -2.551460994765243
H      -2.881555012259309     -1.915824281711834     -3.229691063548914
H      -2.266487874829041     -2.724811476561333     -1.695497107299519
C       0.143607967695092     -1.444110478118039     -1.512531172553899
H      -0.662439999373122     -1.026559125432329     -3.654580921129139
O      -0.160463848745694     -1.873855584354638     -0.437425891710006
C       1.503602402550161     -0.797523007644729     -1.789084548749976
H       2.378448604415371     -1.401514315945981     -1.294905789070879
H       1.383635742257478      0.096048760996584     -1.204602968969329
H       1.789578943968775     -0.551124199861611     -2.772374814794846
22

C       0.428307546836226      1.976607487994640      2.063928457241392
C      -0.095285323952510      1.393381915199434      3.298311421329427
C       0.903933272940827      1.192929357737346      4.229392495143903
H      -1.112570669379002      0.976233305468595      3.469953863975171
C       2.217177053161314      1.518145948446234      3.611004325374062
H       0.639423567315516      0.726110930250824      5.174029689170647
C       1.897204645693278      2.016559532877342      2.355000728298921
H       3.269396248134168      1.397234704974192      3.937023205482088
H       2.582155786395863      2.426418048295939      1.643150173214539
H       0.036002120833333      2.933408787704593      1.907601413816409
H       0.205416691344198      1.276017995496227      1.264674435836279
C      -0.757943458437164     -1.630497003956429     -2.871329691973951
C      -1.830376279766410     -2.487247809764727     -2.714574740890527
H      -2.350435737361973     -2.782408413609128     -3.602497621178241
H      -2.202230479092381     -2.661560256551882     -1.688148994180220
C       0.049855308532539     -1.416550200061079     -1.619896294821309
H      -0.540491255140996     -1.196260029491030     -3.841355979736650
O      -0.280962812516781     -2.030431595203885     -0.616599503815432
C       1.436764097233449     -0.708182996208992     -1.694330804269455
H       2.274751243999689     -1.480193179236482     -1.860360622053579
H       1.658696349291118     -0.295117498632890     -0.688748882557163
H       1.524745172433999      0.157972094155517     -2.448018832375786
22

C       0.637324698131451      1.874621951178966      2.135332017343575
C       0.018359597904283      1.438459015857220      3.393832304335247
C       0.933032515002256      1.304220317260806      4.364791471003007
H      -1.030245513148111      1.093121268594261      3.530794427315112
C       2.220085863327498      1.956685190549300      3.851915787724788
H       0.630409459205205      0.882164600971118      5.368621960471170
C       2.015604513350897      2.222658023089137      2.515197984735944
H       3.170859493892696      2.007034610814284      4.321424472005702
H       2.712034307583421      2.536912566881430      1.773368630354934
H       0.064995995011682      2.567569382285671      1.533191277117578
H       0.690434921424879      1.039587162420565      1.393227060489089
C      -0.619082901794499     -1.839623184730312     -2.931058017683930
C      -1.663686409694452     -2.594212775612230     -3.110648153514528
H      -2.294619858515739     -2.429461907915453     -4.006747954198818
H      -2.022291447184411     -3.325477147363208     -2.386476196825497
C       0.013498545810468     -1.661897135821839     -1.619459965862633
H      -0.331748815680957     -1.079420550786396     -3.742725187785438
O      -0.278237837431421     -2.170581992366569     -0.533919155753300
C       1.132047231581488     -0.602371922568288     -1.590851254519884
H       2.054294121113470     -0.889539555296376     -2.064707741256565
H       1.307561357035026     -0.263689837163672     -0.475209338298695
H       0.734126003223566      0.328048928281378     -2.211229667895277
22

C       0.806745057738505      1.815666826551571      2.218186538873197
C       0.159972166101649      1.345705011999475      3.489316483776456
C       0.932147800871921      1.674886031948381      4.522455473436015
H      -0.887497901603128      1.165678897835177      3.443706190815220
C       2.255178060708340      2.211011580415078      3.976894476565733
H       0.404759526175039      1.657066762992661      5.485200320276406
C       2.183074050813419      2.343707317416098      2.643858281831639
H       3.185272310493269      2.410112362589614      4.586927315215456
H       2.995261836403050      2.683819836023560      1.877734288739633
H       0.174521725971422      2.760346268247319      2.048253104716370
H       0.857374811974100      1.240459294625980      1.279933602617254
C      -0.471632595892904     -2.001945456474560     -2.955509721681385
C      -1.453759455912415     -2.766021228373344     -3.349497796280045
H      -1.639117427297773     -2.884545630193366     -4.383419953962108
H      -2.139482488114471     -3.201458621447810     -2.635713844921203
C      -0.084077141670036     -1.681901728111436     -1.572029677101395
H       0.015146996192946     -1.306202281980409     -3.664512251198664
O      -0.333553121640440     -2.453990644896504     -0.644943756478050
C       0.784087150946530     -0.478917040017784     -1.457947605990240
H       1.785476356596923     -0.575505306895955     -1.978860402755643
H       1.059660391327213     -0.211774999181844     -0.404482313003992
H       0.307599148642298      0.464210455261762     -1.925788226041968
