22

C      -0.054358877019910      1.818292036192819      0.978000695886790
C      -0.885130400871850      0.756600608199369      1.646415371213540
C      -0.008396110223220     -0.265458063823011      2.008732505439470
H      -1.784426625062059      0.987833627452589      2.204802340157830
C       1.193718366157370     -0.113870754970751      1.298685222592910
H      -0.262245946600830     -1.114433596881321      2.628290239716101
C       1.120422421893490      1.020418721708359      0.528661857645340
H       1.993221352956530     -0.841390399401481      1.280148592263270
H       1.895057938714940      1.397305068361709     -0.125190678932640
H       0.287890694966570      2.516734345025499      1.757598249308760
H      -0.555458155466170      2.403955993682249      0.209272238163790
C      -0.700163294135400     -0.034993348405441     -1.014957068363840
C      -1.714487045356380      0.033886352619679     -0.075679580887860
H      -2.449619693011539      0.827769164010049     -0.151553653547790
H      -2.075477670016270     -0.904102434507051      0.329249252262580
C       0.037995126778830     -1.276911931387211     -1.164452438837120
H      -0.512837261450720      0.773727152348119     -1.710901131945380
O      -0.108000216134870     -2.202618371901111     -0.379100983467770
C       0.980229405324210     -1.405757663678131     -2.335145058936740
H       1.363078896085740     -0.442711049025371     -2.678088653987070
H       0.434233439777440     -1.866991205201431     -3.164376608054930
H       1.804753652694100     -2.067284250418121     -2.070410707689250
22

C      -0.030998535210828      1.834659593606554      0.982408194285863
C      -0.906738417952878      0.765087926162206      1.579859784495573
C      -0.012163096311951     -0.260308017264172      1.964264049494830
H      -1.696055552173324      1.006752532475458      2.317770556165045
C       1.221681324397428     -0.140327141386617      1.298800617168163
H      -0.371840226426646     -1.088295611507024      2.578161000559317
C       1.121663272711785      1.035234642554770      0.533950724199931
H       1.981363754912920     -0.958659214090202      1.305845767888652
H       1.952135897389260      1.358941696280347     -0.142671114463714
H       0.293751270252177      2.440495577732615      1.876158457053335
H      -0.529896270033966      2.429440775918042      0.200437008344141
C      -0.662281722536872     -0.021907429207292     -0.999240257851454
C      -1.681809166131645      0.024000177308759     -0.058275574400890
H      -2.486566124256481      0.760153861321275     -0.204972891112186
H      -2.105300855621703     -0.998794091438490      0.228649211414161
C       0.052917108116859     -1.281877897160324     -1.169672399670272
H      -0.422690387615748      0.754055628362792     -1.783868624459970
O      -0.154878905786253     -2.188697222305636     -0.343837959257897
C       1.028550433282134     -1.399998046306238     -2.339130563060265
H       1.385423562778458     -0.394795570075439     -2.661003399428954
H       0.565874734074987     -1.970471499975942     -3.185586788826560
H       1.844501393050843     -2.088462832549818     -2.033653324270568
22

C      -0.014314351580839      1.849647934959462      0.988752400381958
C      -0.931734300126053      0.766555428546669      1.509829145148611
C      -0.014709967401125     -0.260094328084662      1.923037449004365
H      -1.633811697005621      1.015684509060309      2.316462055826794
C       1.238978852493619     -0.164411041805477      1.304162815531037
H      -0.403847960738780     -1.089770405917204      2.529925599049381
C       1.143497699408006      1.031767158130133      0.533836822257379
H       1.943760552609068     -0.964840242769694      1.275046112494443
H       1.931449321956235      1.350913606798865     -0.095943766414546
H       0.275745330690210      2.392630484723825      1.892074810629946
H      -0.472591200602540      2.515852672618757      0.235369769144780
C      -0.605335264785442     -0.007561953030022     -1.004604457252505
C      -1.664973841388593      0.015730600087195     -0.028450473558680
H      -2.486281597900356      0.719956575156995     -0.245670640392575
H      -2.031884999936631     -0.949895942230719      0.146169581221910
C       0.062003105870509     -1.294516576856669     -1.159746611642113
H      -0.408211319425929      0.717465972524877     -1.740545394951953
O      -0.199930734106105     -2.166896918869462     -0.322634353481437
C       1.072119398204529     -1.406499160790656     -2.333781784685266
H       1.428241599314293     -0.428806524964908     -2.646030754699505
H       0.683692413598801     -1.972083641167999     -3.181260080870654
H       1.891867292662052     -2.044440783764054     -1.966293855352039
22

C      -0.002177469752938      1.858409176124995      0.985111064732144
C      -0.952272551120256      0.753702711484066      1.430066801813658
C      -0.017868129740036     -0.269270681886754      1.889163066077312
H      -1.670599571113482      1.040792677575952      2.218711568700248
C       1.220063451062291     -0.161810175654417      1.316773955623856
H      -0.349898097365936     -1.115576163255268      2.474819139983807
C       1.166954323811796      1.003540008280377      0.529247092765685
H       2.028428469338885     -0.953523559735989      1.227344984563175
H       2.002936237190187      1.436976274043383     -0.108716355185649
H       0.289651003430220      2.431504206532484      1.908740854251266
H      -0.380296113091077      2.613563194643749      0.292532850031701
C      -0.548031371650255     -0.005110936992510     -1.001146365015390
C      -1.638399714427941      0.039697451993720      0.005498049242924
H      -2.463309990868833      0.705201420415845     -0.254292114752861
H      -1.979247724315612     -1.041218952579682      0.218542504521927
C       0.066707411933953     -1.300775394019052     -1.142952736960647
H      -0.407027584871002      0.840959144490603     -1.758922144479862
O      -0.234659594495039     -2.151333043146667     -0.320291502161407
C       1.109344705661831     -1.431499642920547     -2.306173694930555
H       1.503413490423667     -0.437391098376933     -2.648850628923591
H       0.731574822633558     -1.950305637788241     -3.203575818647066
H       1.963849252499471     -1.971007946532316     -1.905988868392137
22

C       0.021846373430484      1.866120141318432      0.984883145182483
C      -0.967448063380122      0.728444610379454      1.348453702828547
C      -0.024807894128918     -0.290419339348759      1.869039397967838
H      -1.763271281823930      1.052811994836307      2.032730607483503
C       1.202772715453102     -0.154129037066784      1.321187675346394
H      -0.290171872933922     -1.189247413309682      2.447841582742460
C       1.184103153370977      0.987019834334722      0.502236453654940
H       2.013388661050867     -0.820932006240512      1.236550906070673
H       1.990518174354390      1.443754505686103     -0.017060269250890
H       0.326257482257981      2.403542947652633      1.890438173680856
H      -0.307761287225728      2.685107597456001      0.288815254128616
C      -0.506423799496238      0.016984223363214     -0.989410529578264
C      -1.595258857362847      0.065001061650981      0.043590927698899
H      -2.449553847920790      0.706478071442961     -0.259249581703208
H      -1.866951122422090     -0.918159884571432      0.309800418921214
C       0.075118178845391     -1.290718346052883     -1.143328122739118
H      -0.409957760458406      0.808898260377714     -1.669878499562103
O      -0.258928960439264     -2.150386223808344     -0.332859037384134
C       1.141944801336563     -1.453188489967895     -2.259870122533026
H       1.520465121167585     -0.491110071083253     -2.588791151355644
H       0.728082121072804     -1.937195589907882     -3.171633257059900
H       2.044114867667796     -1.957088426180729     -1.834789715204749
22

C       0.049012897749097      1.863685107846333      0.971996597145528
C      -0.979359347162445      0.706602224498919      1.282595704114518
C      -0.031352167322244     -0.325350684587336      1.863444945397348
H      -1.858063817614145      1.044139513987592      1.860187065606655
C       1.191762401398563     -0.140642035100599      1.311899474553260
H      -0.304837552590775     -1.205524221863728      2.412695694521210
C       1.167354363575117      0.987586463146853      0.469756553687322
H       2.098185582495672     -0.810077685115533      1.320789975748513
H       2.106004408456911      1.423185526807201      0.025259099836879
H       0.386038112952243      2.312172580957074      1.947378428298609
H      -0.264268811946437      2.634143054715973      0.279952097322139
C      -0.477121208675731      0.044193167556782     -0.951071481587922
C      -1.535293024571961      0.116736382866156      0.064805205867190
H      -2.411625925194405      0.673754086048090     -0.273891918532811
H      -1.868334385601541     -0.920383729136299      0.388694512465322
C       0.093031266743654     -1.269843870690702     -1.148707912021492
H      -0.357510252612681      0.853746406847764     -1.729200449856785
O      -0.274508767555491     -2.156553777813382     -0.355512934340120
C       1.168701694652816     -1.474486634346989     -2.199457738539495
H       1.509814781700024     -0.474599699929502     -2.549467119143998
H       0.740602070797428     -1.972264174493461     -3.069032428011094
H       2.020054084970308     -2.002232398745956     -1.796620654498632
22

C       0.071397364955847      1.841565934405726      0.968330530336306
C      -0.972748910100584      0.711537492044636      1.261882354035320
C      -0.031428599783756     -0.352473653092800      1.862267427537588
H      -1.866824951063639      1.011595637365704      1.831127359020156
C       1.191171813468227     -0.143725290396381      1.301790878891516
H      -0.412393402395548     -1.239086354585035      2.415654026189200
C       1.143090749952325      0.997292563189227      0.425223458328556
H       2.053522352534403     -0.759860382120428      1.431494432027596
H       2.105253738604493      1.340192250127556      0.078602820038951
H       0.401251527466438      2.243512943931655      1.946124171198351
H      -0.289246031325368      2.618902612614828      0.244712747809307
C      -0.433635802618754      0.084679200194404     -0.921720421916197
C      -1.487109116294315      0.151345419471820      0.054160769354989
H      -2.401232995862379      0.691559702075558     -0.290233288260915
H      -1.875460400437116     -0.836668524398889      0.324727802410832
C       0.107171137831187     -1.259849812117131     -1.134001944696081
H      -0.290844387459250      0.806468492244648     -1.726139059998574
O      -0.281016173289685     -2.162728239761795     -0.397678400943965
C       1.191252630008366     -1.476992826562475     -2.141303617046503
H       1.515899581445232     -0.509525344035098     -2.526075175542107
H       0.760610314154322     -2.071798382010106     -2.989598450677408
H       2.013004427554925     -2.109249717230937     -1.739672531501245
22

C       0.073481893193227      1.822283808539984      0.956990455958066
C      -0.945159328041193      0.735033057659074      1.295738042943006
C      -0.036679190950285     -0.369532481026279      1.859873042888905
H      -1.784382362112082      0.980353456188781      1.959816066109408
C       1.178404118114210     -0.151222005682536      1.296962181530807
H      -0.469916399324614     -1.203841152709091      2.386828569535740
C       1.117744615293515      0.978881357282812      0.381646177183742
H       2.089684698762294     -0.752119829161379      1.508735121705332
H       2.084480631918378      1.346441621508204      0.043818309077100
H       0.387385459261863      2.262330028817007      1.924229041805779
H      -0.330350997525704      2.585381596908769      0.300715049876008
C      -0.361348684264866      0.121887077111888     -0.903971203511745
C      -1.469794563888180      0.179325861160374      0.003915063728208
H      -2.342585758920432      0.759063139660303     -0.302618253290237
H      -1.896509818676068     -0.816615818007685      0.165487616196411
C       0.118330367899925     -1.247655597415422     -1.101642985363376
H      -0.256013046720348      0.794194440881367     -1.751680221090997
O      -0.282674934000674     -2.178006123857315     -0.445328347155622
C       1.209140013352360     -1.484091001375420     -2.090822287161806
H       1.603438292243379     -0.558348253157528     -2.530275004915522
H       0.808458680619548     -2.121114791636025     -2.878564953674525
H       1.962636870734848     -2.152727963918282     -1.668165254280087
22

C       0.063173880062114      1.817371539868807      0.953602466037540
C      -0.916173207338069      0.739217044642659      1.360064061696351
C      -0.048961378714576     -0.363611765163174      1.845553224781308
H      -1.662796318432927      1.006979439803442      2.123993767346412
C       1.164361555172805     -0.165260361321633      1.297692283082631
H      -0.476476943864556     -1.222170534430286      2.415266523545886
C       1.092270113691013      0.926978097097451      0.342153246685907
H       2.085224175827880     -0.705672598298665      1.496005675638018
H       2.002440778681931      1.403516367818370     -0.091431303645964
H       0.410332320620242      2.330048280605446      1.875971467003809
H      -0.405288261061990      2.596247944311769      0.301197088400556
C      -0.259124664300739      0.155578285764146     -0.895333435879315
C      -1.476881938132925      0.206571788335548     -0.045467208034438
H      -2.269319321375816      0.940237127846003     -0.350985727905030
H      -1.917585248564231     -0.844593961128369      0.015158080617182
C       0.144905140824054     -1.225676490237986     -1.085109845394394
H      -0.225362302954859      0.830761306286865     -1.802720089472889
O      -0.290669011990096     -2.205252957261910     -0.483322126543261
C       1.228571610862035     -1.487600361721754     -2.046971846270118
H       1.719783945105616     -0.626251655775831     -2.522204472550666
H       0.828322081328387     -2.165562107948946     -2.843252085873924
H       1.960883742206049     -2.138724088005203     -1.529644496059939
22

C       0.047777675003831      1.826592107957001      0.958271422789219
C      -0.907728967715320      0.725260522599564      1.424185258244761
C      -0.065248379707910     -0.355529130551865      1.836150300959760
H      -1.606671879541220      1.059677509503968      2.199868652596786
C       1.160477435440075     -0.180467682771887      1.293177712444342
H      -0.390632434948914     -1.172791967375781      2.444337378966456
C       1.045265653229574      0.873607790867554      0.296805824926689
H       2.103320349563262     -0.709439957191095      1.423417666932806
H       1.841219976715561      1.353080675349886     -0.249575566686799
H       0.509324862985770      2.382328544691354      1.811229469360375
H      -0.422937338119580      2.521246172514087      0.248702008144963
C      -0.152271585763411      0.210811585434175     -0.871965286165643
C      -1.491746833846124      0.240305369528762     -0.079607370380062
H      -2.116659024547499      1.070356153679968     -0.406251289713294
H      -1.902249452324850     -0.727903854106697     -0.094111968026173
C       0.185856630296334     -1.223383941660984     -1.085151218375087
H      -0.155353057065040      0.787861176233834     -1.774456373747579
O      -0.306325887306900     -2.222303123200250     -0.515835597197530
C       1.262329243307271     -1.503156196712522     -2.015378223919440
H       1.813978077926268     -0.685501096143760     -2.479098190658931
H       0.870569711309849     -2.162812757975096     -2.794699420621649
H       1.986413399417228     -2.103359021995005     -1.417395569927196
22

C       0.035563394432001      1.829687406636537      0.964690167832984
C      -0.927689246710244      0.720835538604428      1.456245572903213
C      -0.055208611554494     -0.358399904387813      1.835170781162886
H      -1.668696786562463      1.080173112700500      2.191409900321423
C       1.165087513550384     -0.197410789706849      1.280795904877287
H      -0.312513119507593     -1.163225498519964      2.549097962769935
C       0.954401204078740      0.841308731609938      0.230440916081633
H       2.103900962236974     -0.783164680656304      1.352072803350554
H       1.829214694057685      1.232214713461198     -0.363341264500557
H       0.592604923094479      2.381247666980906      1.747499533141678
H      -0.417990515972551      2.462217639041477      0.184641400145408
C      -0.058033566467500      0.258710501623027     -0.805519323222258
C      -1.462017871661771      0.305869014022634     -0.090795544591068
H      -2.040961051424371      1.162175368790257     -0.488096123726954
H      -1.993918760228517     -0.719633412995149     -0.143637809704791
C       0.220973752080903     -1.249586020450857     -1.085800852041245
H      -0.034857652381715      0.829664637006710     -1.807945215988086
O      -0.325528521614967     -2.218991610368267     -0.549293301694372
C       1.317152001698385     -1.529105273519226     -1.989429286387935
H       1.886881291405557     -0.688790196882340     -2.429912260530046
H       0.951313474251558     -2.194797609365069     -2.783253422510187
H       2.028340897444463     -2.065644562040926     -1.362912570260382
22

C       0.028991827067828      1.816156784866079      0.959183764224967
C      -0.975785593582791      0.730702859516856      1.433566574595630
C      -0.022718011690597     -0.379855525301092      1.856684940829050
H      -1.766456098858804      1.024526143377842      2.114628670627481
C       1.165151373481909     -0.214921394858752      1.250629511593667
H      -0.250821898951157     -1.097231463639347      2.646490865939599
C       0.871379037695028      0.831149984337739      0.145408775300639
H       2.023084170720944     -0.874666977539423      1.290317605635643
H       1.833564772114006      1.110564631973891     -0.281555694619880
H       0.631051001811264      2.337892984891686      1.729727426464173
H      -0.411677685025126      2.543188813662772      0.240859257428333
C      -0.000814889808873      0.272727182570152     -0.730021646478653
C      -1.395542245086592      0.377883124610650     -0.076719266971135
H      -1.990000812826695      1.195052297254960     -0.519588099015128
H      -1.986743743212006     -0.497775149320261     -0.162246420780260
C       0.246116580410540     -1.276383170210426     -1.077562455338273
H       0.100929067847285      0.801002554617030     -1.646363895679690
O      -0.350619210160237     -2.200833834454242     -0.581127400280611
C       1.387909670610559     -1.551633501792477     -1.978441110977438
H       1.913010419176517     -0.681100158595051     -2.367233940859753
H       1.079763459206016     -2.254921881051248     -2.777403351958037
H       2.109797189423109     -2.092382684338040     -1.299068834152258
