22

C      -0.054358877019910      1.818292036192819      0.978000695886790
C      -0.885130400871850      0.756600608199369      1.646415371213540
C      -0.008396110223220     -0.265458063823011      2.008732505439470
H      -1.784426625062059      0.987833627452589      2.204802340157830
C       1.193718366157370     -0.113870754970751      1.298685222592910
H      -0.262245946600830     -1.114433596881321      2.628290239716101
C       1.120422421893490      1.020418721708359      0.528661857645340
H       1.993221352956530     -0.841390399401481      1.280148592263270
H       1.895057938714940      1.397305068361709     -0.125190678932640
H       0.287890694966570      2.516734345025499      1.757598249308760
H      -0.555458155466170      2.403955993682249      0.209272238163790
C      -0.700163294135400     -0.034993348405441     -1.014957068363840
C      -1.714487045356380      0.033886352619679     -0.075679580887860
H      -2.449619693011539      0.827769164010049     -0.151553653547790
H      -2.075477670016270     -0.904102434507051      0.329249252262580
C       0.037995126778830     -1.276911931387211     -1.164452438837120
H      -0.512837261450720      0.773727152348119     -1.710901131945380
O      -0.108000216134870     -2.202618371901111     -0.379100983467770
C       0.980229405324210     -1.405757663678131     -2.335145058936740
H       1.363078896085740     -0.442711049025371     -2.678088653987070
H       0.434233439777440     -1.866991205201431     -3.164376608054930
H       1.804753652694100     -2.067284250418121     -2.070410707689250
22

C       0.068479779531945      1.769551571126880      1.028594034747565
C      -0.937278276380368      0.717686449324878      1.566128243964570
C       0.027083922509476     -0.334377320465097      2.030319552886537
H      -1.626959145728925      1.033004075830042      2.340069289723977
C       1.174477403583750     -0.143236818910975      1.356332333874535
H      -0.045781049562206     -1.046016452204273      2.846152653341901
C       0.866730404709966      0.756327898155226      0.127093046285387
H       2.099243009343583     -0.582689954411013      1.617614274278221
H       1.737368279176880      1.159265233433988     -0.406648683143601
H       0.733464276811049      2.204963725036569      1.856294134735052
H      -0.391732046068254      2.708120141506817      0.545748042011704
C      -0.103974568513545      0.195228098475635     -0.667155754581505
C      -1.497710812617229      0.198092205580510      0.134064181451949
H      -2.285769737537157      0.926240730738432     -0.153973235733389
H      -1.967187071513433     -0.760074102023040      0.053167008191168
C       0.167369341479378     -1.220033747127439     -1.087424465121569
H      -0.078547127351271      0.901725368276885     -1.497946788276760
O      -0.111029716502363     -2.184648896743498     -0.419035530275278
C       1.047598330048392     -1.472508021034902     -2.287601259331324
H       1.372920787002227     -0.559927478230356     -2.803722960669172
H       0.724449814552774     -2.157358550736526     -3.057331503630413
H       1.941957064185983     -1.968894587212990     -1.879872368322322
22

C       0.313752985309463      1.765294810695655      1.055771988290430
C      -0.851531786675337      0.864452985194574      1.605682725310442
C       0.041782317900921     -0.327669837042807      2.134803281766907
H      -1.660545468914011      1.167670279546082      2.286750251359666
C       1.204897925450298     -0.224804421513695      1.448700406635109
H      -0.165874962521403     -1.012916857243031      2.952880562886682
C       1.028122457051876      0.766488244908786      0.298595833007230
H       2.055260249512925     -0.816165293476304      1.592199221780340
H       1.913667096078776      1.071168528507281     -0.174936539106473
H       0.925240487837268      2.223661046158496      1.818269159333789
H      -0.043324488333180      2.469772537344194      0.308438711552355
C      -0.091229801380759      0.093542060374102     -0.628941625894766
C      -1.394420276926416      0.306286516261975      0.222322747801364
H      -2.218082448060261      0.935179033754036     -0.265945717394739
H      -1.837386219600257     -0.638585377901216      0.368443143792652
C       0.257677910852621     -1.262360494322864     -1.131604088470186
H      -0.221638155138688      0.849231405971485     -1.416162627895774
O      -0.071780589967228     -2.266681880446629     -0.554167572228640
C       1.109861322982963     -1.416853393016225     -2.315911799809430
H       0.954701169879603     -0.685567920037611     -3.178381015081947
H       1.005904528501298     -2.448594955433324     -2.641824067839915
H       2.186757636529205     -1.394560517780893     -2.023603379136776
22

C       0.383278004892439      1.772291372636756      0.955076861458086
C      -0.694669400224888      0.933124527407559      1.558012009985028
C      -0.006043852143985     -0.125703306812643      2.296777718076589
H      -1.532828872684356      1.431834429395572      2.052708048395870
C       1.082832102789988     -0.466304664425588      1.563882198747147
H      -0.477626814142406     -0.576573067450633      3.109718253888782
C       1.190025268501379      0.546445768953315      0.401161395614083
H       1.802152355635129     -1.204184338709374      1.749670744207356
H       2.232495925851217      0.559058433910673      0.133595123504130
H       0.831852495352844      2.242317227694689      1.842771998359805
H      -0.029627167595992      2.508647170569748      0.276961564388364
C      -0.029188786225236      0.111670536877747     -0.656002622311846
C      -1.178040071470222      0.205283018481861      0.312156639513875
H      -1.942499680519661      0.989065277526657     -0.029459954130091
H      -1.549522961468766     -0.755129749541664      0.443401523247544
C       0.334917328708477     -1.234324397059087     -1.134088839902819
H      -0.143344404744478      0.988318487773685     -1.348440180901896
O      -0.049494427032734     -2.272408162356487     -0.636332332958491
C       1.254320545198500     -1.255227896681116     -2.270776575053108
H       1.043540914942130     -0.607108276593591     -3.164938428613470
H       1.289103281340120     -2.258840160968830     -2.644825539142207
H       2.310084906240790     -0.875671607709671     -2.005026850881322
22

C       0.455614468928409      1.771234551989060      1.171061323743452
C      -0.757923263594764      0.811340504498274      1.594280851203411
C       0.024006976361138     -0.237853196420021      2.373248047540419
H      -1.661994055782488      1.217517232304056      2.093109185946751
C       1.169822557016303     -0.381976727708190      1.763184330050631
H      -0.300138004721075     -0.725618393896802      3.228726513560393
C       1.211512150198398      0.692865062146742      0.520999674148628
H       1.734725964160764     -1.268456616656959      1.923683208609302
H       2.296940725309213      0.986381477615777      0.162811581482846
H       0.876463921274926      2.388731895040032      2.033871505008176
H       0.026296514626915      2.458778876921040      0.378778637390083
C       0.175626526330620      0.107349566082912     -0.643189557730588
C      -1.136808311345934      0.384238206690272      0.070813612084247
H      -1.689734579263136      1.234308076807339     -0.374179347066291
H      -1.814194035725128     -0.462851991340313      0.082245209989797
C       0.451273195011434     -1.331050054602064     -1.167066947160792
H       0.291222762066154      0.836776805973014     -1.482434343267691
O      -0.070401959270573     -2.349174785489076     -0.752998838764631
C       1.443753208447909     -1.293552386419259     -2.224891987023605
H       0.983073150623500     -0.783979799287721     -3.044228203855497
H       1.750648554418635     -2.208722185944612     -2.634221562984870
H       2.328751460228196     -0.644412293103302     -2.058961909498790
22

C       0.405807592064527      1.762687248323222      1.210141121655621
C      -0.762411076192405      0.769725816432032      1.595782950129744
C       0.012631025541286     -0.350667853793035      2.347394936246932
H      -1.608369269680063      1.267989824223309      2.112183867563414
C       1.250615228888982     -0.357295102890401      1.707538568802377
H      -0.377201533141949     -1.317548462849561      2.630476885852951
C       1.205098215358789      0.678291796240044      0.644781361608439
H       2.113169228143513     -1.017666387329685      1.730272570236057
H       2.314058682281320      0.808274128066127      0.434644362845617
H       0.748693634982010      2.183673570516514      2.177667184959815
H       0.106148117426039      2.606195316494495      0.563646137185684
C       0.312355242400394      0.272393956118804     -0.570366415134520
C      -1.095459101199170      0.152348106148231      0.156045749387084
H      -1.977323781451275      0.482603212621873     -0.349438680061768
H      -1.306488956059426     -0.948177858856917      0.219754323858293
C       0.579997775062117     -1.155408577549904     -1.131247291353027
H       0.520682490469207      0.973960705208044     -1.356416621403701
O      -0.085306763247889     -2.141546508905339     -0.835096211607537
C       1.669833857190966     -1.361168417467389     -2.179083179052901
H       1.610057556287480     -0.756996192713850     -3.105409478704575
H       1.831131726324486     -2.371532442450274     -2.554870633876262
H       2.693293628012944     -1.105222376024006     -1.867257348161037
22

C       0.352341983812854      1.675958524512151      1.282850819938592
C      -0.713424019210306      0.665792728525149      1.710880567469344
C       0.177856455006683     -0.445707425539144      2.236558833058851
H      -1.622025867846951      0.894991275426909      2.275821480397368
C       1.443394818056069     -0.373762070085156      1.726343376503432
H      -0.172364224907050     -1.414257149843698      2.676047454003279
C       1.269702227757479      0.660321948575508      0.517342195899471
H       2.289338433384642     -1.049307656841375      1.835976835913586
H       2.125889266869025      0.991688418143581      0.053809204998788
H       0.828642459657691      2.163137701773491      2.148551841449410
H      -0.099143503636569      2.350889540725165      0.594249184241785
C       0.141098479474860      0.201150304315573     -0.584067453634046
C      -1.138393115227665      0.284817568135207      0.187734243689147
H      -1.749601422055459      1.097326640437589     -0.190691150583885
H      -1.792610329789513     -0.659599884142994      0.180803496160252
C       0.622128433438352     -1.160977783523638     -1.112941002217777
H       0.153595192932259      0.922233441252080     -1.438179495506990
O       0.037684632405081     -2.216332101358039     -0.909151067448673
C       1.872169380916050     -1.118177197212364     -1.925681361459114
H       2.056252122824700     -0.108724062182337     -2.406286534435869
H       1.856634925537659     -1.778899848788571     -2.845355876925350
H       2.885095613660106     -1.341673882361313     -1.589403190893695
22

C       0.383461824914426      1.655264179676348      1.356928959823671
C      -0.581868570787984      0.588142918174415      1.747754697631214
C       0.300514189560401     -0.428078418187717      2.310279654558161
H      -1.440227182213777      0.734467294655341      2.375107420289803
C       1.364318001577157     -0.409156697135546      1.458932892106496
H       0.094718312419971     -1.204860960787738      3.083051002585687
C       1.190228931066137      0.787961962337072      0.439242462398407
H       2.112268375090840     -1.203704996461270      1.299692232271882
H       2.152365090874464      1.286621362760311      0.010071094839971
H       1.002450357826213      1.851028264470530      2.243354313792725
H      -0.055624716158559      2.529480407879059      0.860155486655627
C       0.148277332296701      0.185663924475330     -0.578246099883365
C      -1.076347078169781      0.057462708458574      0.371703715153630
H      -1.989682088084541      0.574778602006238      0.131048147906825
H      -1.327207043069388     -1.023479928196837      0.578662460839765
C       0.714759062396338     -1.126156610979516     -1.130873573645325
H       0.036654238712935      0.847809850815356     -1.470175454582764
O       0.004458204629515     -2.082061549696773     -1.019212982758831
C       2.067363042051259     -1.032439723918220     -1.752084422051416
H       2.624799135422773     -0.099908367631047     -1.930159484208175
H       2.063255584059562     -1.577014502908692     -2.734772841143494
H       2.858912112102931     -1.604737118391518     -1.270917429175662
22

C       0.301872903713028      1.710605500620771      1.452513612151083
C      -0.601382627934517      0.450148610026601      1.812053153420666
C       0.562723585562833     -0.529794555963716      2.221590393243875
H      -1.439870991118847      0.660205039414723      2.458163982922450
C       1.579283436887268     -0.229346039495129      1.438366071461768
H       0.587886221520322     -1.454849981063964      2.858546163821891
C       1.234488809585269      0.868419998512497      0.489510444210445
H       2.620474463576837     -0.531892704038440      1.411077778435613
H       2.169247943869169      1.385515168086886     -0.014166050032218
H       0.803712404687170      2.039612122674284      2.402825166835953
H      -0.263437313743380      2.603175272253560      1.065081650376031
C       0.208655446897178      0.217852033674590     -0.464215441976284
C      -1.028224297998062      0.055255535340075      0.318579178463316
H      -1.578421116034236      0.973709053155197      0.016913218321420
H      -1.663001579782915     -0.773971367705223     -0.060908454736288
C       0.731278498564529     -1.199035447667355     -1.050019889423554
H      -0.038818158111773      0.846179403853768     -1.328871870856783
O      -0.079218350382617     -2.065847491064716     -1.169631833465999
C       2.088283314550508     -1.184392087406722     -1.638420546984928
H       2.490792632578851     -0.208572584555744     -1.681030770044097
H       2.199424734347733     -1.651370955529074     -2.617159780638989
H       2.834672249646364     -1.772814595096265     -1.105192747786350
22

C       0.339705367005744      1.671127866368160      1.387630975327767
C      -0.460229191743171      0.417242988732500      1.794201477366532
C       0.594145394382054     -0.596775317160942      2.103510936539067
H      -1.274290383983887      0.374132913072833      2.562869460633439
C       1.720956555067838     -0.159401191992897      1.489957830684570
H       0.489236176982602     -1.427365152163985      2.843479117500638
C       1.238234640536884      0.904906409707463      0.499785144552692
H       2.741624521499580     -0.628701079814566      1.372778331699022
H       1.900294528965702      1.561828741987128      0.062017404127727
H       0.915394311329166      2.248960374736487      2.139133405490460
H      -0.370918404273554      2.386432637800535      0.880026094823633
C       0.237342705807433      0.222797412656513     -0.452120520124553
C      -1.012903453547361      0.022473010020977      0.455486312153745
H      -1.963780284702721      0.502795410726110      0.044259636990051
H      -1.259509097247518     -1.001169737004401      0.504527929396442
C       0.718680965505117     -1.023186905297311     -1.139964797915688
H       0.090436307712791      0.975258987305130     -1.301756963834906
O      -0.040862154283227     -1.966148453517360     -1.188014896033715
C       2.106784022016375     -1.291107525236024     -1.446716328463240
H       2.925873678589086     -0.623149779970987     -1.690338702546194
H       2.061447653972964     -1.959176917968841     -2.328191461843830
H       2.439394069463705     -2.144949356395351     -0.810688538044265
22

C       0.361263411228792      1.674748383277026      1.452572836045164
C      -0.445625720304830      0.473940421029505      1.911205338410706
C       0.672900953466766     -0.468072691955568      2.268635757183049
H      -1.245650711824642      0.658850661586563      2.698862944131423
C       1.744192161405334     -0.270574605506518      1.507743254189890
H       0.548509677475616     -1.410970992311086      2.864236454883564
C       1.345529539353337      0.829514174949437      0.504251697368372
H       2.795601362102190     -0.740221859448804      1.642500884463056
H       2.127901343133963      1.345678260158077     -0.051821612016406
H       0.900883851799733      2.058317410638936      2.298956192083037
H      -0.293276366632215      2.392155322426190      1.046627392589580
C       0.223886558093262      0.211539433778897     -0.461400497562024
C      -0.958929854924572      0.021324388297225      0.482627405933290
H      -1.645364358668092      0.860674713287686      0.124299194747509
H      -1.434223029211425     -0.921297156338022      0.423782216183628
C       0.699880969062967     -1.089782042727248     -1.092380971601672
H       0.019352593425026      0.882556144251501     -1.292900633951359
O       0.024836713000121     -2.033155611575838     -1.413437211377585
C       2.093618052350885     -1.226655987761345     -1.503108967570281
H       2.616595609146779     -0.251164619797288     -1.464664932710777
H       2.493373562877109     -1.718694203931474     -2.418984740423507
H       2.674337764224590     -1.844076108726379     -0.804494928626259
