22

C      -0.054358877019910      1.818292036192819      0.978000695886790
C      -0.885130400871850      0.756600608199369      1.646415371213540
C      -0.008396110223220     -0.265458063823011      2.008732505439470
H      -1.784426625062059      0.987833627452589      2.204802340157830
C       1.193718366157370     -0.113870754970751      1.298685222592910
H      -0.262245946600830     -1.114433596881321      2.628290239716101
C       1.120422421893490      1.020418721708359      0.528661857645340
H       1.993221352956530     -0.841390399401481      1.280148592263270
H       1.895057938714940      1.397305068361709     -0.125190678932640
H       0.287890694966570      2.516734345025499      1.757598249308760
H      -0.555458155466170      2.403955993682249      0.209272238163790
C      -0.700163294135400     -0.034993348405441     -1.014957068363840
C      -1.714487045356380      0.033886352619679     -0.075679580887860
H      -2.449619693011539      0.827769164010049     -0.151553653547790
H      -2.075477670016270     -0.904102434507051      0.329249252262580
C       0.037995126778830     -1.276911931387211     -1.164452438837120
H      -0.512837261450720      0.773727152348119     -1.710901131945380
O      -0.108000216134870     -2.202618371901111     -0.379100983467770
C       0.980229405324210     -1.405757663678131     -2.335145058936740
H       1.363078896085740     -0.442711049025371     -2.678088653987070
H       0.434233439777440     -1.866991205201431     -3.164376608054930
H       1.804753652694100     -2.067284250418121     -2.070410707689250
22

C      -0.063777769999525      1.834100679250657      0.959361785908022
C      -0.880620132638639      0.787060004984255      1.622904584550569
C       0.007569395501108     -0.250583271253570      2.001958482079758
H      -1.842159598992249      1.035872354469489      2.158515513950387
C       1.219431046935947     -0.129697335658321      1.285325671467591
H      -0.278620708324344     -1.096440608827989      2.585550302312132
C       1.112994247084841      1.012077271681101      0.554589215648908
H       1.998464209047368     -0.899361857862384      1.296737924417133
H       1.992789590291595      1.367192627837348     -0.141349147442083
H       0.316938073377540      2.545073199840734      1.792714826611642
H      -0.599784458964125      2.352648570499315      0.176739815740582
C      -0.705973340771190     -0.044740867075324     -0.999122977294031
C      -1.698700353880367      0.043958246467198     -0.064356607204550
H      -2.454882757813821      0.836637122635187     -0.154375919371005
H      -2.043284844956899     -0.910457419356600      0.401486837360020
C       0.074837836512647     -1.279969166775234     -1.180775252016548
H      -0.404422990875051      0.782235409106052     -1.682014123261720
O      -0.093545956409995     -2.185790901375389     -0.394575758165566
C       0.975046851198962     -1.402286534512329     -2.352145122709158
H       1.341578224332968     -0.441192032991838     -2.678329409973893
H       0.371183502035335     -1.842140612262950     -3.185227548602398
H       1.756990600562429     -2.112853265761310     -2.105307549509460
22

C      -0.067796862815733      1.851968329993379      0.944229587565003
C      -0.878489001181700      0.815550959929849      1.603057999328021
C       0.020833023421498     -0.231960695116007      1.994428883385087
H      -1.844219511206766      1.067296200065878      2.096965257320972
C       1.241831569479259     -0.147823338000661      1.276933295692218
H      -0.293317982141141     -1.110687620278090      2.572109570715948
C       1.117518213168245      1.009537304599181      0.571023609474603
H       2.008377341453296     -0.935216013005692      1.292142598230391
H       1.993880879180835      1.315652852764720     -0.089079828043304
H       0.309063113807639      2.542331079691877      1.761169661114774
H      -0.637725105699879      2.333664936765260      0.124170369224504
C      -0.706343785374634     -0.051787167330646     -0.990494297190157
C      -1.688458753007397      0.050106253673879     -0.047066694939091
H      -2.449558204615590      0.835326395012422     -0.160582227157096
H      -2.000525262910928     -0.885164743278494      0.443300721293079
C       0.103824688267098     -1.280540366732561     -1.192763960400511
H      -0.328510693065012      0.775386036790733     -1.631356570000045
O      -0.077731949195824     -2.173461849416842     -0.408141272669686
C       0.967125123959622     -1.400432249933883     -2.371576016928699
H       1.349891751000287     -0.416384738202446     -2.699845411957315
H       0.327260460234420     -1.806605645427640     -3.189282615019737
H       1.735594794426110     -2.168399962725724     -2.139764469815260
22

C      -0.066679756330851      1.870837355358119      0.930086399184925
C      -0.877773056014060      0.838052631877584      1.585603864269021
C       0.030151397951267     -0.214194780797209      1.988500260520809
H      -1.806262229957136      1.084239516794895      2.048945483700863
C       1.256542199300336     -0.164056015114423      1.273659756690735
H      -0.298775140899924     -1.110880537846931      2.567056911639894
C       1.132568511659682      1.009230188421483      0.577777918683994
H       2.014724753525705     -0.937130477252962      1.277404533399267
H       1.933582900303011      1.286260750968768     -0.011758892554208
H       0.277663487102721      2.544675938096496      1.685816604295665
H      -0.633717012941049      2.337476455493912      0.091759661641305
C      -0.697181753394671     -0.055852076080652     -0.988356836856606
C      -1.683185605470857      0.052188484605107     -0.026011619913606
H      -2.434092642096300      0.824247062107329     -0.165293189181581
H      -1.968497813213775     -0.853834165185710      0.460454975348717
C       0.122020358610264     -1.275505015125581     -1.202467807902739
H      -0.300179442215910      0.758938669687800     -1.562675339842117
O      -0.060420208536425     -2.167470980189440     -0.420277037249240
C       0.961991414394711     -1.399578922329284     -2.395410344993919
H       1.363597132132243     -0.413305858261268     -2.710438827724667
H       0.300260705066999     -1.765480104081395     -3.174434551003106
H       1.704771901740768     -2.200603207555070     -2.185095311561243
22

C      -0.060537032830065      1.882894246490454      0.909753781461226
C      -0.872301508103097      0.850797173017812      1.566735221786526
C       0.034338964624956     -0.200025425474299      1.984026057567286
H      -1.799157647154038      1.102234674139850      2.055872872194430
C       1.259183328873443     -0.172934596660409      1.275322768022467
H      -0.290998016164208     -1.084479386680224      2.551547282252171
C       1.145461590091594      1.007032256875511      0.582460302205268
H       2.025044277314312     -0.929168904255096      1.254251936642041
H       1.959822019522785      1.335290469323877     -0.020187186170542
H       0.250470906930668      2.616076472068858      1.646371920836339
H      -0.595012482640168      2.356401941839212      0.082142812308371
C      -0.680927722609618     -0.060856019129334     -0.988355848981188
C      -1.675201704407080      0.053904159099556     -0.003375957451789
H      -2.434281570048882      0.812589579319134     -0.168415847292553
H      -1.973921067928113     -0.864761948393759      0.480257626359160
C       0.128868242417803     -1.261155462835100     -1.207670956052113
H      -0.300220627052573      0.791013355932694     -1.525007792184361
O      -0.039872234927093     -2.167281236541185     -0.428811725617467
C       0.962804474388582     -1.400740677397537     -2.419784377924013
H       1.387811889360012     -0.442332523726522     -2.717223130883335
H       0.259576000351733     -1.732979777842617     -3.188553204103072
H       1.665106873223930     -2.202019598057730     -2.241364263707283
22

C      -0.046883752188834      1.887678687350062      0.886765789466253
C      -0.865195311668896      0.853297112006380      1.547279224147281
C       0.032381002921284     -0.189270140678652      1.980569290795889
H      -1.798846461118476      1.116124201523841      2.106785654393196
C       1.248945856797163     -0.171985871336752      1.282470296372070
H      -0.278207370985511     -1.049900115506543      2.544603323129715
C       1.158214201149776      1.005488257392241      0.580828100872462
H       2.051902875102427     -0.924219104389736      1.223025212434302
H       2.034878009319566      1.424765324121015     -0.061930261613284
H       0.236485345969174      2.722941522272139      1.636406901017153
H      -0.531176032862155      2.395351349341367      0.067951958120925
C      -0.661252622199426     -0.061794060866864     -0.988297033085126
C      -1.661870515331734      0.053620927284210      0.019236308937525
H      -2.443311479531586      0.807857846075569     -0.157755776898645
H      -2.002148936726041     -0.892905135052904      0.494789902295496
C       0.126388394798130     -1.240852844343996     -1.207931602215276
H      -0.317973639479885      0.859394323736898     -1.519026260099423
O      -0.018883181276803     -2.172308634324727     -0.435235080201278
C       0.963240941589743     -1.401770164934223     -2.446258811856141
H       1.436698485611893     -0.468038068570697     -2.733728841027109
H       0.224451356678410     -1.704081990790918     -3.227276257886459
H       1.659794885162242     -2.218654865799960     -2.295526227195896
22

C      -0.025843490319982      1.893250570205684      0.871131846481859
C      -0.863512895157523      0.848359070261161      1.528123839542024
C       0.025929439573357     -0.181379571766040      1.977243379468956
H      -1.750347031730032      1.120576759162965      2.153121048064178
C       1.233352246506685     -0.161756778954439      1.292247345764543
H      -0.277311330976306     -1.038918580050252      2.561955935774221
C       1.179586259696829      1.012462965643278      0.568804123575736
H       2.057356806286932     -0.897583641405335      1.203542068402350
H       2.041143689983082      1.473940288973651     -0.055635791264897
H       0.221454979012660      2.767639132117700      1.583953717930335
H      -0.468453527073989      2.444598257744983      0.016548634752437
C      -0.638869638266545     -0.052133600981395     -0.988959798924535
C      -1.646051975075812      0.048940154343985      0.043141183146024
H      -2.436880443908863      0.796359633584892     -0.147206666777932
H      -2.036091956271339     -0.890762310141840      0.476050625960962
C       0.118396948848757     -1.220133093496645     -1.207314446912896
H      -0.368444963128347      0.894945493489278     -1.515625944554718
O       0.002770452047424     -2.181227989448653     -0.438949858957484
C       0.961528280659378     -1.402940839454714     -2.473390635013299
H       1.510437906076460     -0.476395505856578     -2.762144502273051
H       0.225995973257063     -1.673704025738452     -3.269398781106921
H       1.670833414122590     -2.247358333578529     -2.344681555655095
22

C       0.001135351664239      1.901138691352677      0.857826637880808
C      -0.868666404086935      0.839108700761218      1.509341272713015
C       0.017670368378330     -0.177292689997278      1.974707187812098
H      -1.668387454874286      1.116635211293793      2.180315736282253
C       1.219421187991710     -0.144332379649352      1.300294138150372
H      -0.293746769035380     -1.032909599416139      2.602868309671156
C       1.205623718396458      1.029024012310790      0.548524945582440
H       2.026665505342878     -0.859728798844908      1.209920291374984
H       1.988936293510887      1.466274715375701      0.000793060826850
H       0.211391261726639      2.733483481442084      1.510730727107771
H      -0.403648074664178      2.469951538531494     -0.044083591647891
C      -0.615860369020781     -0.027963969981320     -0.987064584569784
C      -1.626727835509626      0.042902065144320      0.067761169593371
H      -2.418946649266720      0.771093184234183     -0.137721282646486
H      -2.067664029454166     -0.874333673861363      0.431396512205450
C       0.109542826183187     -1.208414825220631     -1.207225307933732
H      -0.438350561406725      0.885006438305202     -1.526435731088662
O       0.024119614861355     -2.191697126581298     -0.442818039801136
C       0.960737649697955     -1.401794586759946     -2.498894548997333
H       1.568393754984630     -0.505506671711501     -2.789143514546875
H       0.255633037782439     -1.638462896277403     -3.308145965587335
H       1.662595178632488     -2.258195086593552     -2.384258436642423
22

C       0.026013228832487      1.904530076582371      0.839216697694406
C      -0.877674599331437      0.826323586901997      1.486533039580694
C       0.009167413243196     -0.180700030998892      1.976075331890088
H      -1.618390493691687      1.124306766293965      2.215624331015997
C       1.207621937244294     -0.117783381592212      1.303812233950846
H      -0.301148019134684     -1.002354640129451      2.636169510172902
C       1.221574803399260      1.049172219210792      0.529394944884990
H       1.988052609800498     -0.844137753055458      1.237072547832957
H       2.022341251654584      1.470840995841674      0.011597329511288
H       0.232553735200137      2.710605857881744      1.502694900849324
H      -0.340210129551232      2.440795311839639     -0.066378277968655
C      -0.592165307250173      0.000880341768287     -0.978099138006434
C      -1.602988730690332      0.041881676832088      0.090136703812003
H      -2.404935559056102      0.753920824451467     -0.130507556366319
H      -2.097927737044778     -0.885463295982223      0.385319100569047
C       0.105052224741511     -1.206694442662480     -1.210142337120407
H      -0.504625706875769      0.880896302906324     -1.577940219528884
O       0.047155326004480     -2.198924066162928     -0.447314605120828
C       0.959252919028265     -1.398353963344604     -2.519737946332190
H       1.597745910752019     -0.555851489349293     -2.803478511287585
H       0.284685849400879     -1.600980185454054     -3.358142276355345
H       1.625382127562877     -2.254433676903910     -2.418227537780286
22

C       0.045456755668382      1.900885505030560      0.815564687958237
C      -0.886431702424516      0.812354531801428      1.459530106810675
C       0.003677989131956     -0.188676558041770      1.980542933856522
H      -1.610689891111008      1.147312574263915      2.243869911881737
C       1.197450700179646     -0.083843042987224      1.303591775028201
H      -0.293924095284568     -0.965169117760626      2.662270423564726
C       1.225257352793178      1.068224110587824      0.514497904782584
H       1.972957332056515     -0.862809036906481      1.267469278577754
H       2.144340932697174      1.495531873132620     -0.027413907788572
H       0.292812599008648      2.724819364535020      1.563636182033576
H      -0.297242115934546      2.390941665748093     -0.066651454354371
C      -0.570675637838662      0.025926020831585     -0.962318145578186
C      -1.576567383714921      0.048118810943180      0.114361824899292
H      -2.392210513607060      0.754767003107181     -0.134969733870612
H      -2.102581542277226     -0.915482297187209      0.354696966995546
C       0.105247872470487     -1.215482952356757     -1.218034185741117
H      -0.555539208701389      0.887355270937794     -1.677501723575172
O       0.069553665579662     -2.200380038824403     -0.452448958051009
C       0.956251589953755     -1.394704949232428     -2.536967451055611
H       1.616880591326451     -0.579612015221589     -2.802175795485840
H       0.302959944015455     -1.558069167231636     -3.424228619370119
H       1.584851625518121     -2.264353765802428     -2.437892176816856
22

C       0.063262821716334      1.897179159641115      0.801970165033490
C      -0.897248195259952      0.800972613070051      1.431703581519886
C       0.001619510036320     -0.194186088460575      1.983395054436217
H      -1.608317291161376      1.161051775082791      2.219918076781735
C       1.192497519403936     -0.054813488300239      1.303728856793346
H      -0.283780180810662     -0.947286188090785      2.697207723702332
C       1.233115852307372      1.087938479812068      0.493620769264707
H       1.949685015674223     -0.867765908216860      1.305404339227103
H       2.198955660971115      1.484419091624023     -0.022500595643874
H       0.353002659482928      2.696577140605530      1.606663707352450
H      -0.296693417690352      2.372935022410478     -0.099261930782578
C      -0.550226969188270      0.048490253204463     -0.945908155813130
C      -1.552722786755207      0.058496797466278      0.140214736845601
H      -2.373353733895419      0.755628231925991     -0.142835094105129
H      -2.062816176357548     -0.918695068790149      0.332421981402868
C       0.110368878205810     -1.231077713349787     -1.230199026611762
H      -0.592490230539732      0.848867299177104     -1.755927288530066
O       0.089662527723128     -2.196156153675475     -0.459364130028555
C       0.949026517600606     -1.389178645109443     -2.553947647625342
H       1.640902199343497     -0.554730255790900     -2.792048841268369
H       0.316828150921809     -1.502414169629376     -3.473365214272365
H       1.551043151033088     -2.306155342754121     -2.446655802331561
22

C       0.077908209674422      1.895554001589314      0.799718661887453
C      -0.906822854288921      0.793380280816369      1.406095725684753
C       0.003191650391277     -0.193159716968256      1.983742472931480
H      -1.615481641103908      1.168690190907259      2.146310880523849
C       1.192133593867476     -0.034595241222400      1.309193322291713
H      -0.274216863506533     -0.952303014549595      2.727663177961623
C       1.246981872339531      1.104670665626827      0.465481189137897
H       1.925110471066502     -0.838431421917770      1.350261360995061
H       2.158160818031607      1.445298313176469      0.023468557587481
H       0.380570547122493      2.604471595971382      1.594753506545647
H      -0.325899228431313      2.393930456563740     -0.134453582290940
C      -0.527698430051344      0.067853456967212     -0.934321241835086
C      -1.533199196325925      0.073565941990012      0.163287388940896
H      -2.348237218672423      0.746980766790158     -0.149945589653374
H      -1.980771052705806     -0.894794942221694      0.318790978824482
C       0.119508955093838     -1.247798703185204     -1.246479542782877
H      -0.615874872222990      0.761104824546939     -1.792856266422685
O       0.108273267304208     -2.190515976914008     -0.467602140401911
C       0.941174102199836     -1.382514091951023     -2.568752879949355
H       1.646844646130606     -0.523208212536949     -2.761741127965349
H       0.335368449298726     -1.435441627203404     -3.485153909865084
H       1.504315732522881     -2.340256826684410     -2.454616480401016
