22

C      -0.054358877019910      1.818292036192819      0.978000695886790
C      -0.885130400871850      0.756600608199369      1.646415371213540
C      -0.008396110223220     -0.265458063823011      2.008732505439470
H      -1.784426625062059      0.987833627452589      2.204802340157830
C       1.193718366157370     -0.113870754970751      1.298685222592910
H      -0.262245946600830     -1.114433596881321      2.628290239716101
C       1.120422421893490      1.020418721708359      0.528661857645340
H       1.993221352956530     -0.841390399401481      1.280148592263270
H       1.895057938714940      1.397305068361709     -0.125190678932640
H       0.287890694966570      2.516734345025499      1.757598249308760
H      -0.555458155466170      2.403955993682249      0.209272238163790
C      -0.700163294135400     -0.034993348405441     -1.014957068363840
C      -1.714487045356380      0.033886352619679     -0.075679580887860
H      -2.449619693011539      0.827769164010049     -0.151553653547790
H      -2.075477670016270     -0.904102434507051      0.329249252262580
C       0.037995126778830     -1.276911931387211     -1.164452438837120
H      -0.512837261450720      0.773727152348119     -1.710901131945380
O      -0.108000216134870     -2.202618371901111     -0.379100983467770
C       0.980229405324210     -1.405757663678131     -2.335145058936740
H       1.363078896085740     -0.442711049025371     -2.678088653987070
H       0.434233439777440     -1.866991205201431     -3.164376608054930
H       1.804753652694100     -2.067284250418121     -2.070410707689250
22

C      -0.087365115735274      1.804409737886256      0.983226299663497
C      -0.904292878786693      0.792859988455020      1.630570860868754
C      -0.018012113370834     -0.245123608383240      2.016583902118790
H      -1.850029285205028      0.763996246971820      2.197176885668592
C       1.232440556929849     -0.122760940979135      1.282330173592857
H      -0.464077878720579     -0.981823210392880      2.717115471147055
C       1.126885193046171      1.049794230602715      0.535930811089851
H       1.875386991489702     -1.056069490744075      1.276741957329552
H       1.860996027482333      1.401083238095459     -0.194831012981229
H       0.218563662641110      2.474907259287463      1.823551584127368
H      -0.607873065293037      2.448868020906059      0.236708264462456
C      -0.721119674146357     -0.062665597387131     -1.077376358735505
C      -1.734612631727783     -0.003322453370174     -0.099127989769753
H      -2.498973894763759      0.800816893787368     -0.110433137062940
H      -1.889048648798423     -1.005400098244525      0.312980050944719
C       0.039279644636194     -1.281285400972394     -1.219442587626294
H      -0.549134823789899      0.782516117987479     -1.803676182646200
O      -0.140301022111050     -2.176166384444395     -0.357100671392334
C       1.016336930735260     -1.350029151403930     -2.301661553975157
H       1.321684366704370     -0.409712710671316     -2.815898215724225
H       0.564175718529074     -1.926763374399775     -3.145333666855951
H       1.744098087727293     -2.184797413840894     -2.050999227591668
22

C      -0.109381521309392      1.810226509395497      0.980480984930949
C      -0.927948478867605      0.784028768102234      1.622881612359047
C      -0.029092287685773     -0.212268316272173      2.021251829981148
H      -1.921735947539800      0.735124602121762      2.186295708337703
C       1.238379217792223     -0.139103284959140      1.275595671851770
H      -0.457391101269528     -0.914019550240599      2.745992371165019
C       1.134076000147484      1.069297799291356      0.540234082291514
H       1.802289077978544     -1.045881868237075      1.233064035709157
H       1.826806961310655      1.443205170557535     -0.247719796206508
H       0.177501293490964      2.450778237094912      1.841999482543203
H      -0.596995640378344      2.462315529794149      0.293131979856552
C      -0.758006555702656     -0.070476138829281     -1.138353990996235
C      -1.737977562237957     -0.047507772966943     -0.132637121017107
H      -2.519060467246071      0.678848126976405     -0.088245631377503
H      -1.839811631400952     -1.084751466796749      0.303345599086522
C       0.024687943799344     -1.287773541676257     -1.224957626005499
H      -0.598821965406537      0.718355270359520     -1.809905252235186
O      -0.164219416943417     -2.141615038876834     -0.358553890153296
C       1.060188050262454     -1.325564185377846     -2.289704451690953
H       1.349315070937429     -0.424097969298180     -2.822442742954916
H       0.612703116366320     -1.921931790400883     -3.122905190859008
H       1.771907132034418     -2.080614016091269     -2.014983883241246
22

C      -0.111540631765162      1.823241567249507      0.985744400484924
C      -0.957264252474592      0.746487805717041      1.625103948328545
C      -0.037605192533541     -0.182615697396217      2.023725398411993
H      -1.870017282430292      0.894478770134523      2.095610335216493
C       1.195064321182050     -0.127496794129369      1.274495492219155
H      -0.269713871876040     -0.967428961147766      2.739818972945153
C       1.142479543224308      1.068602478372672      0.540832474975290
H       1.897909574211433     -0.993601902590418      1.146211399517123
H       1.776365319147663      1.479751557067562     -0.226336447214486
H       0.166296454665689      2.478188317024046      1.839878442670396
H      -0.605540185546246      2.521034051221370      0.241715394013659
C      -0.814513852071490     -0.082459852648197     -1.176999134171717
C      -1.724513440766752     -0.103860446098199     -0.171331026869578
H      -2.587231109791328      0.602528905791923     -0.120871406397541
H      -1.900195560682614     -1.050017573305846      0.258091259853837
C       0.005142621405477     -1.277149063837105     -1.207897802507787
H      -0.629422337658261      0.787708443934243     -1.901565816466754
O      -0.181418832895941     -2.109558045086923     -0.373798559633037
C       1.089049890635021     -1.338608765420817     -2.297583725352402
H       1.447388797348827     -0.373236185264072     -2.717312323755961
H       0.599007298257163     -1.863264795997453     -3.112994080024531
H       2.003683787822248     -1.910194785152129     -1.916803809290255
22

C      -0.107821347734652      1.834977218345576      0.981539821066376
C      -0.966024654708742      0.723107913980217      1.615773568134568
C      -0.031616764488605     -0.182508428752545      2.027869924174175
H      -1.973355548180816      1.104949733741585      2.107452908288828
C       1.139447454890587     -0.093670553529688      1.263861457127737
H      -0.068380726521353     -1.055327169646647      2.724768717131026
C       1.122963108109131      1.057200465706556      0.549837792608994
H       1.946958108363396     -0.812231238825009      1.110704038532798
H       1.830547284221011      1.513649639395034     -0.201332074003691
H       0.191864216763948      2.526885443522657      1.812989782229001
H      -0.573388072718385      2.460322536385416      0.240781024842203
C      -0.866172877670442     -0.081229770882216     -1.220695755549264
C      -1.737166519176201     -0.133659035274599     -0.213644061345263
H      -2.572775651197919      0.524577583280108     -0.196165740354069
H      -1.959405066174989     -1.158881691117017      0.290537571848674
C       0.014869455067661     -1.239303708965213     -1.204983012913616
H      -0.708970559579863      0.719750956561922     -1.870533946362619
O      -0.195631532426993     -2.101881032985667     -0.379159723194670
C       1.118940846161562     -1.358307747566768     -2.296937552935874
H       1.495956405269017     -0.344582695112013     -2.552079191107933
H       0.632069295441052     -1.866600310619331     -3.179940038154561
H       2.064388705035114     -1.703668302066385     -1.868682917842506
22

C      -0.096696677100842      1.840072706374043      0.978664208060409
C      -0.984429620367370      0.734946225718937      1.621163961660051
C      -0.028705668779418     -0.217407887242954      2.042813572809097
H      -1.849920095690976      1.133795542265740      2.034234007345875
C       1.101124599888798     -0.049304461879688      1.238218417525658
H       0.016358934362745     -1.056341532195772      2.666730733847667
C       1.087760801866989      1.067569990758533      0.541360648146946
H       1.949070040034803     -0.717304266473011      1.164705589748649
H       1.866203036332438      1.460618272431730     -0.080725805162525
H       0.206859771021630      2.557870776284168      1.750596227060763
H      -0.603099855647583      2.404211918933875      0.158673898524330
C      -0.886623311023171     -0.086928538226517     -1.253177960677440
C      -1.792402858693598     -0.167544177475219     -0.233701880056302
H      -2.640081379236404      0.560649986235126     -0.291285818307910
H      -1.899223624001261     -1.067958087807897      0.239186973673821
C       0.040389985980507     -1.209674368263657     -1.216253533813484
H      -0.802611275288596      0.796788136856886     -1.957070498052201
O      -0.199188142923912     -2.111499580093932     -0.382359197587476
C       1.137061516031968     -1.360229853052315     -2.285598736290011
H       1.426322510259451     -0.307578772014581     -2.477573861716408
H       0.835768500288473     -1.863576891835703     -3.183746255683465
H       2.065369271962372     -1.706281532016139     -1.812597667751072
22

C      -0.106000657251713      1.837111017765299      0.960330690045366
C      -0.956657924907843      0.756329421111337      1.635232410115330
C      -0.046064072306644     -0.239796542094811      2.039029526381353
H      -1.939036545992101      1.091220967455128      2.117726317897906
C       1.089987509488044     -0.030076557435410      1.216499749669996
H      -0.050934447819307     -1.152900944615335      2.722473235691589
C       1.042590842219139      1.100096197480679      0.510638962729883
H       1.950091960846899     -0.763933193019545      1.246084196623788
H       1.960521740637988      1.438550578180816     -0.030431133164770
H       0.183466995125323      2.622648082871891      1.708928582886424
H      -0.616711925675316      2.357031341160179      0.121126984629004
C      -0.893680002803340     -0.075443600528634     -1.270993550791210
C      -1.869044716238429     -0.160528121898032     -0.269459716922080
H      -2.699916728996275      0.520017026647820     -0.325306158600164
H      -1.855731498064020     -1.185842543937977      0.307026372926980
C       0.054663248385934     -1.224936116091685     -1.224361295538104
H      -0.888726172426981      0.751538148605514     -1.989649926489076
O      -0.187275507236829     -2.112144901040863     -0.396879691095158
C       1.161230704084747     -1.328562746915775     -2.248202970965244
H       1.341239038169838     -0.268907375692554     -2.535231530260228
H       1.028962997255019     -1.896246825724484     -3.212883161675097
H       2.042618184380094     -1.859041446369056     -1.764129942428593
22

C      -0.146218719496532      1.844323334653023      0.937575332391585
C      -0.919589441695315      0.788477411348435      1.672666954717331
C      -0.082648514624139     -0.252719917166923      2.030790465199549
H      -1.905964900236598      0.928413478748084      2.163798604095291
C       1.110381133199212     -0.044441359358754      1.209629644050213
H      -0.222372732420580     -1.085795817637724      2.673339774647780
C       1.029743866871461      1.120284777751541      0.467622321271187
H       1.883926887583018     -0.750748613346077      1.273097400179852
H       1.933751470211854      1.457885666353067     -0.027544024817984
H       0.116400112216368      2.648972880505136      1.627978074557300
H      -0.655312156924521      2.358888430425038      0.140515458407679
C      -0.910430461287170     -0.073328583184299     -1.255138195161015
C      -1.927239441232737     -0.164395356430775     -0.316105107181785
H      -2.834978782741242      0.463786934665491     -0.278720497209437
H      -1.883865111890568     -1.044832244888680      0.212999740028997
C       0.043993167374752     -1.256640031851067     -1.238056834072317
H      -0.897362966927694      0.658623299518391     -2.054031062887724
O      -0.166608032115874     -2.110334417632423     -0.421904423866089
C       1.202059491732847     -1.286161874277750     -2.207101002278927
H       1.378901913393018     -0.291363922163140     -2.625700649031792
H       1.081464853833391     -1.877076903165277     -3.116518245598189
H       1.951227975788167     -1.903226742782328     -1.743779215337608
22

C      -0.207016375013262      1.852223770773209      0.910788331006374
C      -0.885704542183852      0.821978698465751      1.730780168008590
C      -0.106284571283243     -0.235135084202475      1.997306528586759
H      -1.861280254891501      0.798176687150244      2.195985574096398
C       1.117253512955948     -0.054051661508934      1.209249892943595
H      -0.413638891348501     -1.104298627075191      2.659182820503566
C       1.038981852229521      1.098936174823290      0.447974391516558
H       1.957340239713891     -0.828967022940536      1.231803578606436
H       1.851474503684868      1.577256548186504     -0.129491143410940
H       0.071326001202799      2.714334193327158      1.570869155013745
H      -0.812043690194722      2.394523963032476      0.104174173569977
C      -0.933108569158541     -0.086435212157471     -1.225961942654038
C      -1.965540045756235     -0.157984163975493     -0.386856162529591
H      -2.901022115911684      0.423642528696472     -0.255841746186333
H      -1.998520205942065     -1.128812059394194      0.232258576906198
C       0.010631105041134     -1.254210185991944     -1.267142580189184
H      -0.831137720748800      0.609424643435979     -2.120989251749577
O      -0.143192759643011     -2.125150420922654     -0.440929538321342
C       1.236684195126147     -1.247296831894945     -2.171009035732715
H       1.552519155885653     -0.280946406795948     -2.638153400174443
H       0.956775089934212     -1.886523387289554     -3.043243212836523
H       2.038561730219815     -1.816522447808384     -1.634664808998443
22

C      -0.265499603966642      1.869081341742829      0.875771904670708
C      -0.873078312834397      0.848292201298099      1.792109813774614
C      -0.111751376252357     -0.220823170191516      1.955093082058290
H      -1.935211641170946      0.868676099493170      2.274532410098884
C       1.136381272092786     -0.066308913233381      1.198132064184799
H      -0.473462415583944     -1.058824041326044      2.527413820905966
C       1.045545762924873      1.067800262804531      0.454158397760040
H       1.899995578660208     -0.797916633787244      1.158266024566921
H       1.711974560769683      1.629192792220862     -0.259757493297469
H       0.064102695402123      2.754888105029387      1.478137006427311
H      -0.911397608449210      2.315747323894621      0.145749413519504
C      -0.947783216022285     -0.096557763626683     -1.232812029599480
C      -2.012893250488533     -0.178672995019531     -0.437274335861735
H      -2.881384292727387      0.450731942950848     -0.298654563571704
H      -2.119467304799694     -1.086059134712361      0.162091262119974
C      -0.021510555077344     -1.225089993176833     -1.283650984836580
H      -0.739101909914825      0.546505254929756     -2.032929669312625
O      -0.118487616767670     -2.153703870295429     -0.458224151437382
C       1.259348018751281     -1.215968336992121     -2.138450811389850
H       1.712693285062912     -0.294219433225294     -2.528076970847506
H       0.876199501459331     -1.877281428050978     -2.954496013307689
H       2.080780678316302     -1.620331782293711     -1.541131834227969
22

C      -0.294193940452431      1.873977372790032      0.854263826278316
C      -0.899432014882762      0.883135203519906      1.852572290919673
C      -0.101601195017769     -0.211466792931603      1.912297424561867
H      -1.834351193761162      1.066267578877581      2.270326981601341
C       1.143776346764043     -0.066727416584772      1.172803464013864
H      -0.429891489526977     -1.137024600195690      2.396538347569669
C       1.030886145116549      1.061450402000167      0.467401172016947
H       1.922152579439545     -0.864374544227232      1.118554237302300
H       1.585393674904641      1.511083394180018     -0.350852819349107
H       0.036677112204858      2.806432927610464      1.359131798417646
H      -1.029060902803381      2.226335341838431      0.073261806798267
C      -0.957980638941457     -0.110321593552481     -1.256299086244138
C      -2.073084761891792     -0.208332346792482     -0.472545070579775
H      -2.874057035300834      0.581866422807069     -0.396149928797823
H      -2.215919028536392     -1.086470214628952      0.130895108727879
C      -0.021137846309185     -1.215271967637230     -1.257161626075510
H      -0.654527527284911      0.715588927656287     -2.010604509849876
O      -0.099261368128421     -2.177022379274946     -0.491004289608100
C       1.265939704919507     -1.186201371396243     -2.107426638003615
H       1.724672215151977     -0.245092163374761     -2.432059385094141
H       0.997707633143903     -1.856760682548011     -2.912359149172655
H       2.064592917833437     -1.551441035760491     -1.437067422436776
22

C      -0.299395101722461      1.857817387704475      0.843218569566817
C      -0.901865972313404      0.921135705494028      1.886436595698256
C      -0.105313070283987     -0.211991994385234      1.883012928432517
H      -1.913980057837931      1.279456114286984      2.370290550857084
C       1.144650556623038     -0.067115529389528      1.140831746609921
H      -0.299250414216453     -1.250873077187095      2.263771576616143
C       0.981251599209609      1.085919718099642      0.468667026697083
H       1.888319733755851     -0.882879285061927      1.115127900195978
H       1.594334967254231      1.368410495433963     -0.459601437277084
H      -0.053410524240255      2.886107099444746      1.237144594937228
H      -1.000698145340898      2.109680721727126      0.022361656655976
C      -0.973986228622330     -0.113284672543134     -1.289915438706006
C      -2.132511060133714     -0.223235737971647     -0.516550987704239
H      -2.791760970333001      0.617018413328818     -0.520574108338026
H      -2.291925937048664     -1.133056723632085      0.150934639238495
C       0.011017376049967     -1.217556238632476     -1.217429998569998
H      -0.672582377754181      0.778986132925032     -1.811884032268896
O      -0.094163271836712     -2.197292312677591     -0.525034061639558
C       1.270660357649092     -1.149514508316533     -2.058925382785360
H       1.599426150514654     -0.141938836535228     -2.397986979581401
H       1.254082498532029     -1.865546761379799     -2.964303593457188
H       2.013270085591791     -1.606828602737419     -1.377227517892901
