22

C      -0.054358877019910      1.818292036192819      0.978000695886790
C      -0.885130400871850      0.756600608199369      1.646415371213540
C      -0.008396110223220     -0.265458063823011      2.008732505439470
H      -1.784426625062059      0.987833627452589      2.204802340157830
C       1.193718366157370     -0.113870754970751      1.298685222592910
H      -0.262245946600830     -1.114433596881321      2.628290239716101
C       1.120422421893490      1.020418721708359      0.528661857645340
H       1.993221352956530     -0.841390399401481      1.280148592263270
H       1.895057938714940      1.397305068361709     -0.125190678932640
H       0.287890694966570      2.516734345025499      1.757598249308760
H      -0.555458155466170      2.403955993682249      0.209272238163790
C      -0.700163294135400     -0.034993348405441     -1.014957068363840
C      -1.714487045356380      0.033886352619679     -0.075679580887860
H      -2.449619693011539      0.827769164010049     -0.151553653547790
H      -2.075477670016270     -0.904102434507051      0.329249252262580
C       0.037995126778830     -1.276911931387211     -1.164452438837120
H      -0.512837261450720      0.773727152348119     -1.710901131945380
O      -0.108000216134870     -2.202618371901111     -0.379100983467770
C       0.980229405324210     -1.405757663678131     -2.335145058936740
H       1.363078896085740     -0.442711049025371     -2.678088653987070
H       0.434233439777440     -1.866991205201431     -3.164376608054930
H       1.804753652694100     -2.067284250418121     -2.070410707689250
22

C      -0.046822840702598      1.833280412065610      0.969291533304901
C      -0.857780431837241      0.735802378876079      1.671117006401373
C      -0.009786203643869     -0.273775651024862      2.020112368667232
H      -1.828847459589353      0.976852595292879      2.241587985380616
C       1.236563296243169     -0.104118760545104      1.288404048685784
H      -0.314750066270244     -1.169654795572646      2.590585658163147
C       1.147599733374906      1.021374977902108      0.528595358590377
H       1.962254018611803     -0.871864510958452      1.252503332092350
H       1.924869157298880      1.459854013747429     -0.099823462923524
H       0.310440438698097      2.603743603119790      1.721445733982428
H      -0.624748956831807      2.391647038934916      0.250445525952990
C      -0.681316471717823     -0.007434669445270     -1.001864692307119
C      -1.707236304671854      0.033886198567664     -0.083316232286378
H      -2.435121823358709      0.852405326673470     -0.186052415138814
H      -2.105830355830075     -0.881588150633811      0.343052611956316
C       0.040028195099645     -1.253818948795381     -1.154181148065058
H      -0.519404576709106      0.787009673968948     -1.704959261628441
O      -0.091307731253196     -2.198035779496347     -0.388516016318992
C       0.991118809038459     -1.406794452854451     -2.348254796585519
H       1.383920348860599     -0.411962808461665     -2.586055066724128
H       0.465689621618260     -1.877748748532795     -3.176130302930764
H       1.830424323092997     -1.986039067830995     -2.021673469212031
22

C      -0.036426837411372      1.846948753417095      0.968234554185290
C      -0.840906414161738      0.721091590425036      1.698193990318607
C      -0.004426499916237     -0.285740582398606      2.030885162004655
H      -1.802775109486131      0.950294951679486      2.244449970306933
C       1.272532002161118     -0.095923788663341      1.281555159437274
H      -0.342731549634630     -1.207401392253362      2.544925281059142
C       1.172535176682874      1.026987539841585      0.528121963320043
H       1.983168442122139     -0.943980417293476      1.228683555842607
H       1.962903322952798      1.517990365478015     -0.076671893010017
H       0.318044476859063      2.659095705298661      1.668174791098026
H      -0.691071121286855      2.390034467966907      0.256152018780608
C      -0.663046670721578      0.017587185769691     -0.987259827728807
C      -1.703833122746340      0.038088524712543     -0.092474203690068
H      -2.417103199931083      0.868714957070119     -0.218420620935196
H      -2.136006625288867     -0.875327097318035      0.350884790425167
C       0.046072647613948     -1.235740659173350     -1.147862622605194
H      -0.523874745420440      0.825863443438749     -1.714763435160745
O      -0.075776718806374     -2.193237248326926     -0.396381218632847
C       0.999105503698717     -1.400232368705738     -2.357664951605849
H       1.404694888471135     -0.378451926866880     -2.522819708436483
H       0.499224427232162     -1.885525740827114     -3.210737488960676
H       1.883078904939876     -1.955301412335141     -1.967912606973215
22

C      -0.027081556337428      1.857025554020293      0.972522936284156
C      -0.827822972310436      0.717945969000873      1.727398308973658
C       0.009975518904261     -0.301504112395000      2.038486022158823
H      -1.751337445045962      0.909498120188453      2.221927288772367
C       1.302198761800942     -0.093682645643830      1.279880307372328
H      -0.335248428362187     -1.234602876201177      2.496725063490035
C       1.197204152085908      1.037564995580810      0.527263459857060
H       1.999781605053395     -0.988131151294118      1.206311766417401
H       1.982002806334234      1.553343385851288     -0.053506379321044
H       0.302955414084939      2.681603849260150      1.613573588744467
H      -0.727398614514516      2.366362304996935      0.259483313715927
C      -0.643777052512567      0.040768965897934     -0.973854409031172
C      -1.705567288906755      0.044610374185362     -0.103500338304023
H      -2.403753141279481      0.867985574062107     -0.234875396141322
H      -2.151893038666142     -0.865944789232992      0.333228788938152
C       0.057531424402704     -1.223110497301118     -1.147369787325827
H      -0.529620504885589      0.852601627056158     -1.717502931534926
O      -0.061740279653105     -2.185411150653731     -0.404637423346125
C       1.007483591171209     -1.387459085050960     -2.359223114888627
H       1.405061806921611     -0.369597964688709     -2.506191640233125
H       0.544665883614765     -1.880225554484199     -3.234248970662034
H       1.905645771693756     -1.948243221649514     -1.943490593375324
22

C      -0.022028649307494      1.862106339097751      0.978850667242723
C      -0.808807463000615      0.725284733694423      1.751690523361570
C       0.034295101782738     -0.317926470499296      2.040364295854320
H      -1.761986279268731      0.883823045566125      2.235435106797369
C       1.325499965816361     -0.100616522091305      1.282037336005992
H      -0.300897669586557     -1.271715147639881      2.459808464278653
C       1.221002257237283      1.053831673913947      0.528346428070208
H       1.991826078327995     -0.965761139172509      1.189217579112043
H       1.990687926421368      1.560842107184530     -0.037344089934437
H       0.295996942089327      2.707946002545944      1.595010195169417
H      -0.715666994840741      2.314653609281405      0.265288595823155
C      -0.624903467640016      0.060483217145601     -0.962720330475823
C      -1.712522788425020      0.053813023535524     -0.115328170494789
H      -2.410756639002584      0.869561012588968     -0.230556297729852
H      -2.153555308753160     -0.851767034610980      0.293479399594896
C       0.072092278886383     -1.214475101271142     -1.156873235456798
H      -0.527331751102126      0.859754794114870     -1.692912786977593
O      -0.049030142675841     -2.177903804236741     -0.411287542585034
C       1.020201960876446     -1.370938385840591     -2.349898576522376
H       1.396978234467384     -0.374124134243766     -2.543246939715756
H       0.595192259650488     -1.861060936944335     -3.235260588503626
H       1.873671682898950     -1.945283083572394     -1.964098831334609
22

C      -0.018587369282336      1.859925134279856      0.988021755126233
C      -0.784990350941332      0.736311283467238      1.774615596094283
C       0.064873070828435     -0.331198410917998      2.035043886525163
H      -1.800701952320938      0.879360912181485      2.274925110208069
C       1.339684453152849     -0.106976405420012      1.284073954540952
H      -0.237221694716724     -1.307337384992308      2.440121752763571
C       1.237065274777730      1.069902906725602      0.535902116492170
H       2.010516932431364     -0.930241314525151      1.179533811090444
H       2.028701263054752      1.568377619396017     -0.047240314021979
H       0.296759996355299      2.745997015263452      1.614620315471190
H      -0.675570677039825      2.265171386837895      0.238420644222614
C      -0.608726998634902      0.074011670699335     -0.951460409332632
C      -1.722288696792717      0.064369094310967     -0.131153088742864
H      -2.435573792461192      0.887355869543172     -0.213640104503633
H      -2.135990557546307     -0.853934616185955      0.253055685682045
C       0.087686849564483     -1.206348033017490     -1.171844798028871
H      -0.495695771571533      0.870330065946977     -1.669873173161508
O      -0.037964599148533     -2.170877247222758     -0.416135215761246
C       1.034703288786031     -1.353067389867281     -2.332872277520551
H       1.412042013986128     -0.364770488913637     -2.625008394718964
H       0.639641633987376     -1.831447778237221     -3.231081742057168
H       1.848851403797520     -1.964941526590702     -2.001353316231587
22

C      -0.013860582155189      1.852575925317077      1.002760454812720
C      -0.760760632230598      0.746613023618442      1.799892626315639
C       0.098013632139785     -0.339344652043782      2.025135268023583
H      -1.772885451255111      0.884166332269790      2.301501587451017
C       1.341787727473013     -0.107461276412087      1.284072353586317
H      -0.147385980945984     -1.330015378352429      2.440973165104888
C       1.248237242143488      1.081967809312066      0.548235597659368
H       2.082788175705489     -0.918512506658060      1.179245421006671
H       2.060789466237269      1.563891506500185     -0.059397763208914
H       0.294094075017776      2.751451111023529      1.636322688873272
H      -0.626951437052476      2.240434435148196      0.169685796155272
C      -0.595333627474412      0.080195028634661     -0.941400037434544
C      -1.733642599383781      0.076736063512747     -0.150311778929007
H      -2.454284313021506      0.916068540565188     -0.177935198490168
H      -2.104334619956322     -0.881971190558667      0.224875007558947
C       0.100931809205029     -1.200139373830043     -1.186356776422328
H      -0.434408482695894      0.907234547120613     -1.656958149583517
O      -0.028742499008032     -2.161462241316222     -0.423354448276533
C       1.049737970989968     -1.329215205232065     -2.315576683572672
H       1.450978827721408     -0.359549009963525     -2.714243016686830
H       0.656867693548421     -1.798433048707145     -3.216795106624803
H       1.874653306772402     -2.008729387425178     -2.021735778368273
22

C      -0.007330449553858      1.845496364368017      1.021498920236350
C      -0.736499036061051      0.751870736202276      1.827952991086536
C       0.129823476151622     -0.342815602359891      2.011841156150899
H      -1.680134998351519      0.907492632411495      2.315769713110475
C       1.340717571529470     -0.102748547048170      1.280816282294096
H      -0.050264603389526     -1.326298949791572      2.445213928819236
C       1.258790417672892      1.089086647535028      0.565504759653050
H       2.153607563343426     -0.880857318459734      1.180751080260773
H       2.045235420921397      1.540425801052477     -0.055192997454866
H       0.270601333829783      2.716505044600144      1.641034092780723
H      -0.565243816685180      2.230759786104620      0.111250387557009
C      -0.585297716117026      0.081283494052024     -0.937569537574389
C      -1.745055525839644      0.088563179129837     -0.172921778647619
H      -2.448361309083787      0.939498702991225     -0.130761357607289
H      -2.073388456956129     -0.899271594770248      0.199078090189220
C       0.113092568939893     -1.193929572627560     -1.195803945985198
H      -0.364833402180480      0.933279195127108     -1.623827094080081
O      -0.020189825657560     -2.150154723590060     -0.432273938750494
C       1.072657395529369     -1.303893953480501     -2.303654973471987
H       1.485855552976872     -0.377478171883372     -2.766256923486829
H       0.633203057758208     -1.778471262254645     -3.202298528651381
H       1.897222162695252     -2.030190895578536     -2.039388128045205
22

C       0.000917881250274      1.834998302962392      1.037396256372540
C      -0.700481280851563      0.751923510010783      1.852480718338260
C       0.156463881923626     -0.339562516849601      1.998682834712234
H      -1.616795721356954      0.935241049164046      2.362739264291966
C       1.344668798311436     -0.095146581318176      1.270439568901862
H       0.041073203468766     -1.308747388207424      2.459832239720914
C       1.265436427037000      1.092145551528240      0.588923636186598
H       2.179360050332646     -0.800605614598427      1.197269799293005
H       2.016518149190407      1.520926273079238     -0.046230988377399
H       0.234260013687442      2.688830975465420      1.653302259181719
H      -0.491640399719692      2.212057385055078      0.113990750266691
C      -0.580373594888926      0.082497191794609     -0.939662139436156
C      -1.754881103614507      0.096479751059700     -0.198626700458276
H      -2.418791251799570      0.947510910930742     -0.083928151230741
H      -2.047958807462849     -0.882136780354856      0.178327700353134
C       0.124612445929433     -1.186226355418582     -1.196877782833760
H      -0.296956072546355      0.935196231839451     -1.563128046256490
O      -0.012426794653125     -2.139345140055053     -0.442036075369535
C       1.102982615242232     -1.280157581372436     -2.302341691740398
H       1.511737000314558     -0.396700894744761     -2.768710660923814
H       0.583125984033023     -1.769511901876421     -3.167302699762960
H       1.881825804818311     -2.010241475334130     -2.062680220695785
22

C       0.013664629656428      1.819091074242413      1.049890477236040
C      -0.654304417963497      0.748886578283200      1.873466191971881
C       0.176999800740638     -0.330339559565476      1.987189263412638
H      -1.598514456116573      0.967044295613094      2.443819628128618
C       1.352941536087435     -0.082971528715396      1.254634121535531
H       0.111803496344901     -1.292587810398738      2.482401445777067
C       1.267717237152530      1.094541268639214      0.619228172443011
H       2.199217517927397     -0.724678271643963      1.222208273792946
H       2.012447801439506      1.520252577671303     -0.061259555498072
H       0.211452834635798      2.703639326386411      1.681869155390063
H      -0.444314474306681      2.195528204482069      0.156819480276001
C      -0.580639158571373      0.084037215422039     -0.945716118181442
C      -1.759387936882327      0.097716919735838     -0.226898348578071
H      -2.386804001023040      0.960486627694520     -0.055164999780915
H      -2.040868194615922     -0.860781709083391      0.172419723234008
C       0.136072716357745     -1.175297782946571     -1.190931607307296
H      -0.228216858026673      0.933604751632489     -1.513501840367120
O      -0.007375630873413     -2.132079290873818     -0.452090703667140
C       1.132471596007113     -1.260938994097196     -2.306881105672047
H       1.553021440702693     -0.367067112253133     -2.752352956199807
H       0.531986788165630     -1.753224041029235     -3.111868711822888
H       1.873244903785510     -1.988209464371410     -2.074039586435247
22

C       0.031707576569730      1.800684212743445      1.064789728033732
C      -0.610297556187632      0.747277100166682      1.898118312858108
C       0.194157912182997     -0.321180211615315      1.980179076156634
H      -1.541051285632922      0.975736553242754      2.509811786156314
C       1.365476955641828     -0.068478872330200      1.237506473743396
H       0.147347059663192     -1.277588293866289      2.516077315476648
C       1.270218628848605      1.100810488021851      0.649654725414513
H       2.250020714483042     -0.706838248270287      1.249948706911960
H       2.014493723351742      1.523902693567368     -0.071769199456126
H       0.202337884293521      2.721507880970326      1.702913054829015
H      -0.450818771702449      2.211219336901742      0.178423000262537
C      -0.586915315070769      0.085838450386071     -0.955516645376930
C      -1.759055857189572      0.094977381220009     -0.259345600850974
H      -2.362372890735410      0.978683212581133     -0.051451394735066
H      -2.054727067813259     -0.854653469657620      0.188227056085151
C       0.148802706117366     -1.160590805035632     -1.180466572073012
H      -0.159825717558563      0.952414493200608     -1.497005541556190
O      -0.005182675359948     -2.125469929444996     -0.461223068492621
C       1.155876250151253     -1.244339331337435     -2.316381994050532
H       1.603198097653606     -0.309932554908330     -2.717018335020213
H       0.503307458406979     -1.720682020786894     -3.059876421153732
H       1.916853977438223     -2.007458394288606     -2.066813431080137
22

C       0.051823203807484      1.789249347914050      1.082415078904742
C      -0.577279271926251      0.751532914172309      1.927958950806699
C       0.212442386708493     -0.319781878148954      1.980330759945261
H      -1.437685179201689      0.958542475847706      2.539699319578769
C       1.385353525044830     -0.062879266718668      1.222435081093008
H       0.156100763929710     -1.248233165633733      2.547664160423268
C       1.278352695645464      1.117546321717240      0.671432003784548
H       2.297969827079728     -0.716531757730620      1.268494272688256
H       1.990530255924841      1.523843995671835     -0.046183732251051
H       0.193591650853281      2.711423150145846      1.690749189551570
H      -0.496711166322612      2.242078529379746      0.213198139779590
C      -0.592691420450849      0.090781698210360     -0.972824448892155
C      -1.756604486439328      0.089593113362108     -0.292236209788502
H      -2.346519499628588      0.992707859918788     -0.066254294797095
H      -2.082564449363995     -0.846079045769263      0.209548646889220
C       0.166014547828029     -1.144026883263846     -1.168581200301812
H      -0.117869193281508      0.961503077015678     -1.488217678045663
O      -0.004467778844266     -2.119105486197186     -0.468722540753372
C       1.176514190141711     -1.230484400497253     -2.324228302769474
H       1.639651350250253     -0.266900380608333     -2.663089760616066
H       0.492248081280666     -1.680113409401420     -3.046459664711084
H       1.957202619645573     -2.013626082138766     -2.061839581022386
