22

C      -0.054358877019910      1.818292036192819      0.978000695886790
C      -0.885130400871850      0.756600608199369      1.646415371213540
C      -0.008396110223220     -0.265458063823011      2.008732505439470
H      -1.784426625062059      0.987833627452589      2.204802340157830
C       1.193718366157370     -0.113870754970751      1.298685222592910
H      -0.262245946600830     -1.114433596881321      2.628290239716101
C       1.120422421893490      1.020418721708359      0.528661857645340
H       1.993221352956530     -0.841390399401481      1.280148592263270
H       1.895057938714940      1.397305068361709     -0.125190678932640
H       0.287890694966570      2.516734345025499      1.757598249308760
H      -0.555458155466170      2.403955993682249      0.209272238163790
C      -0.700163294135400     -0.034993348405441     -1.014957068363840
C      -1.714487045356380      0.033886352619679     -0.075679580887860
H      -2.449619693011539      0.827769164010049     -0.151553653547790
H      -2.075477670016270     -0.904102434507051      0.329249252262580
C       0.037995126778830     -1.276911931387211     -1.164452438837120
H      -0.512837261450720      0.773727152348119     -1.710901131945380
O      -0.108000216134870     -2.202618371901111     -0.379100983467770
C       0.980229405324210     -1.405757663678131     -2.335145058936740
H       1.363078896085740     -0.442711049025371     -2.678088653987070
H       0.434233439777440     -1.866991205201431     -3.164376608054930
H       1.804753652694100     -2.067284250418121     -2.070410707689250
22

C       0.227690374770516      1.807985473800343      0.996402051221989
C      -0.830683295945471      0.724259493107048      1.376644165362958
C       0.066911096651484     -0.389940339444625      2.013168131208535
H      -1.564821590607144      1.141262019324782      2.062996824968749
C       1.216786188381206     -0.316991738993391      1.324215417453752
H      -0.244917257191633     -1.197858906126249      2.660795992369590
C       1.121354011413167      0.833530777705670      0.270140068537954
H       1.954883813416989     -1.129106911252219      1.304084092881256
H       1.998720603742226      1.132011007855305     -0.312560679178389
H       0.732428373708513      2.355400467906304      1.793130283490219
H      -0.213048995004700      2.637241759683285      0.372379427202618
C      -0.386170228677404      0.222472201842980     -0.862816721665683
C      -1.487510668858921      0.266511701832258      0.159605184387598
H      -2.308090062682704      0.865621914180787     -0.229131666753363
H      -1.923523976506822     -0.702210838914364      0.291139223857646
C       0.132584858030718     -1.184115150709510     -1.304461206736885
H      -0.734384724277628      0.868121929932972     -1.664439160024715
O       0.010976891532710     -2.223414550522859     -0.746698659136663
C       1.099826226954451     -1.074345634122682     -2.476016342913727
H       1.707113936479071     -0.118653876047222     -2.583685871014474
H       0.577932095401762     -1.212344570077415     -3.401902985252873
H       1.772453015028049     -1.952307578353280     -2.343283196783215
22

C       0.314363235635439      1.808877481324425      1.114851170806639
C      -0.683317713388316      0.715571961890981      1.519147695659005
C       0.163321300032430     -0.405570252485526      1.936047358273963
H      -1.332442591056077      0.974098442087164      2.376564449410004
C       1.320361340369068     -0.368470701954167      1.292782697134099
H      -0.218334384161600     -1.005202671666579      2.736175875330878
C       1.153184450884511      0.762280901966119      0.288153510961019
H       2.249208354184941     -0.954037535653422      1.295758269923630
H       1.988732258183346      1.083187364776263     -0.308084613068780
H       0.978764364679249      2.138854600295251      1.926402344370848
H      -0.047202868918873      2.792532527471507      0.695636001261194
C       0.088916735940947      0.390657572365683     -0.840763107780512
C      -1.241145727494851      0.335798494965795      0.052620017628543
H      -2.026147249026168      1.070098985003591     -0.336177553931525
H      -1.544612297789470     -0.696443653301567     -0.108757640970831
C       0.252329775503848     -1.049913674859754     -1.521831713919605
H       0.359561530807101      1.286126342920674     -1.473496409678695
O      -0.161866005810757     -2.112271524214308     -1.087331971708831
C       1.123760182128877     -1.127009705206495     -2.708657524622248
H       1.964130081755979     -0.360005662224479     -2.471780539374264
H       0.675675878722503     -0.831258775452747     -3.691395376739197
H       1.581140545891815     -2.157325213991098     -2.741857126466366
22

C       0.480515051574647      1.703694413873232      1.165392279109300
C      -0.651946080506802      0.750040771101647      1.464175047510313
C       0.358818776043941     -0.499468038339203      1.937556312311794
H      -1.464134324494361      1.150099372148837      2.144141199428329
C       1.424022757559009     -0.523576998879009      1.071682930909258
H       0.210449597599734     -1.396764172570973      2.525888981978009
C       1.335027145105555      0.697669206895025      0.299473882280503
H       2.339061908412878     -1.065502889727066      1.235681412299061
H       2.183639114372821      1.177798144318311     -0.217315655376369
H       1.022711486433469      2.350328483296539      1.902973196673408
H       0.172312616092660      2.411955961812444      0.390973250479256
C       0.246006168267047      0.421427211642442     -0.881547023060347
C      -0.932634503812788      0.424191774103481     -0.003882969823139
H      -1.682055165124225      1.002761450928726     -0.584709872402957
H      -1.268022693808718     -0.603844695658731      0.063722910124655
C       0.286047791302194     -0.898259315974384     -1.603275860189993
H       0.346824716833263      1.251225688989913     -1.645991752129288
O      -0.252384430409914     -1.939829417409963     -1.187229365009779
C       1.177638732700873     -0.915726657341337     -2.816610888897033
H       2.159508003409264     -0.788387620030148     -2.538918670232577
H       0.867899694330957     -0.059807398369111     -3.433008588082091
H       0.968600672309242     -1.895731352577920     -3.273052200514754
22

C       0.838351843934905      1.668846408595281      1.081403558564561
C      -0.365264816992613      0.783452327849578      1.462855584798064
C       0.313835255604478     -0.441109330664682      1.824255890958249
H      -0.989922726232594      1.073718821030453      2.338582749921365
C       1.348412320152020     -0.653804299039310      0.964730696932663
H      -0.138200824715596     -1.053556310432386      2.591040540131360
C       1.414697474343084      0.589279914758622      0.074736014782015
H       2.218777120765040     -1.291504317843454      0.970303925101546
H       2.451988051943775      0.902997827448177     -0.281448428972001
H       1.715025273906703      1.769429391178281      1.844793833122203
H       0.578117175767606      2.690793152853566      0.746626966908189
C       0.274825923124731      0.452153365720491     -0.846082662800072
C      -1.020539384529856      0.643255954723689      0.115997931360644
H      -1.462047231414073      1.620477014231172     -0.139823240063222
H      -1.805506930192577     -0.099600413321814     -0.025029074190762
C       0.369846620048788     -0.830453720591700     -1.654011517471591
H       0.352725194524522      1.161159964160187     -1.678147590605113
O      -0.073819764474147     -1.938392164015019     -1.356563195802866
C       1.266528171673702     -0.820166336000110     -2.882130773163047
H       2.261461056059126     -0.854428797776516     -2.376915549300727
H       1.191580642421501      0.213591324697457     -3.374123305128117
H       1.192971455795272     -1.691757387993284     -3.517511441106506
22

C       1.130766712286100      1.606702600884580      1.042942184753747
C      -0.189825560575875      0.894963250319219      1.371654232780687
C       0.267909171065018     -0.552729330892858      1.686085687785531
H      -0.746175742021348      1.473136375774492      2.138713479610616
C       1.424766821117828     -0.632214214156496      1.020824527534522
H       0.121111381892724     -1.106236839119040      2.583009302744672
C       1.677142170030539      0.516455141894129      0.059212371156293
H       2.035495428665806     -1.593418973717198      1.007739651438947
H       2.606725118852150      0.769756893641006     -0.426295782997591
H       1.752358018306067      1.559981588770994      1.945586525137919
H       0.922820362498673      2.591987844457014      0.538475933641022
C       0.312975186534388      0.465692199783074     -0.829341623488899
C      -0.895277350809677      0.575482990135357      0.044073032212105
H      -1.438859345649611      1.411023800884333     -0.377522252833930
H      -1.569810874385652     -0.300867239978433     -0.068797825946831
C       0.439521456056772     -0.738664128748805     -1.729288520823459
H       0.180813586008822      1.254443595619432     -1.554649714210349
O      -0.206282303545471     -1.720937919032450     -1.421677992970586
C       1.369430464928186     -0.714291053378289     -2.958939989747647
H       2.455870505059462     -0.343565699942079     -2.670943976783349
H       0.819885133444925     -0.038652340381178     -3.648605512579945
H       1.273120664123023     -1.686652161128324     -3.434242469087356
22

C       1.204531588382180      1.618903924180212      1.228325642315113
C      -0.144380516931569      0.777379284049482      1.387044595621059
C       0.458774176948605     -0.537518659122716      1.735863850323238
H      -0.969026967096072      1.055638425374240      2.057216372043838
C       1.575709621230632     -0.576042589627573      0.964485961162250
H       0.207105493516390     -1.174881281858667      2.634292347645778
C       1.682611029462370      0.664929553015713      0.180450609254371
H       2.322155970486491     -1.408405394511889      0.870449997588153
H       2.551070420891834      0.965844313803904     -0.380029607194384
H       1.750947112385850      1.663445811590408      2.145047357862885
H       1.130535986423826      2.649409729609897      0.719494662998418
C       0.593377190630607      0.462687572809020     -0.846037940743236
C      -0.723613875641554      0.749241001267537     -0.018953677840681
H      -1.115777611362062      1.735538332276415     -0.223372827173660
H      -1.467553002669892     -0.046632588393427     -0.282883847300196
C       0.555279877341926     -0.795873647831646     -1.877089468780716
H       0.798738654288629      1.300526319490620     -1.541887640127429
O      -0.368644777591927     -1.532494570406005     -1.733068433704345
C       1.343301507279143     -0.917560789030635     -3.166685852583606
H       2.106188545825645     -0.122695339581226     -3.183135727843335
H       0.663059238037909     -0.976425529469281     -3.938328221970318
H       1.723133241927435     -1.919400083754313     -3.074398001231891
22

C       1.201677811776819      1.526702162072514      1.072521053348255
C      -0.028600255469274      0.751072814654369      1.342605229897930
C       0.637850600604428     -0.698807830042837      1.513363513829368
H      -0.743601775632858      1.140601560637316      2.057780362804430
C       1.665211329079412     -0.810622530884127      0.653377768415921
H       0.204379420550733     -1.539232662909944      2.101597571142696
C       1.763223764757128      0.568538459412183     -0.010324385408677
H       2.503734373721832     -1.513185956014444      0.723292867471462
H       2.753249315857939      0.843615038336093     -0.484540548093547
H       1.790501106730898      1.483253583819626      2.053101107045958
H       0.972791386140384      2.642949032418366      0.929898891343786
C       0.621956775557783      0.652614021803150     -1.001436285988563
C      -0.657568875480294      0.861216420627102     -0.133486450539467
H      -1.035820208995295      1.878049159003255     -0.386968725328002
H      -1.463027220621802      0.150809981968994     -0.404421342618672
C       0.500849317374743     -0.680663821880031     -1.763276695661538
H       0.788466122797081      1.565601897303929     -1.628519411597420
O      -0.505478130862442     -1.296730708186582     -1.602554392685923
C       1.686571980157819     -0.826707134833169     -2.767057036775989
H       2.219845885897407      0.093208021529791     -3.024086112665866
H       1.090655100355362     -1.202826929940629     -3.701794964469713
H       2.414368372589235     -1.597838194982483     -2.306754502718361
22

C       1.427575257809973      1.523868599366285      1.102296673261442
C       0.188067387766205      0.734049411293369      1.453187676402928
C       0.672114621505679     -0.645515054316050      1.242172510011502
H      -0.538509902498713      0.850005790235054      2.263187023359754
C       1.657648530592002     -0.702752087930931      0.359817363627891
H       0.200101131122314     -1.531726707239859      1.719642374696733
C       1.777375520589833      0.674650709404355     -0.091735700455993
H       2.076721817536698     -1.669453859571018      0.023226750135468
H       2.774220718403912      0.802929259020287     -0.648681823469013
H       2.248156268545957      1.455099500454634      1.864273118903185
H       1.208669370442403      2.560637271705860      1.038616052539303
C       0.486421292462717      0.779895949419245     -1.021516543673823
C      -0.616621047615484      0.973477716428358      0.086436137224550
H      -1.116385159262899      1.907614866183893     -0.103177005775601
H      -1.398204164536869      0.157703913690832      0.003497408280597
C       0.530797332078779     -0.604183127228685     -1.777103212037098
H       0.422335937674700      1.604327800587875     -1.757576249058723
O      -0.409032394753054     -1.406097987473818     -1.860854026466309
C       1.809498594107318     -0.968671178964423     -2.563778829957172
H       2.198957814961632     -0.091328407091549     -2.925461399300206
H       1.601725144161555     -1.634884883133331     -3.504227266596237
H       2.605469313350763     -1.305588529895835     -1.900414389446416
22

C       1.391044073855208      1.605494475787378      0.936386694258799
C       0.181419076968009      0.730339919187098      1.335204541146696
C       0.875924259339117     -0.545831557966494      1.612176526694173
H      -0.485725238355426      1.129203515523109      2.126173335962080
C       1.961162743201452     -0.664021799628375      0.853602404392098
H       0.379743211040472     -1.302357883599452      2.245520117787832
C       1.981118056623327      0.659995385012543     -0.056760591962446
H       2.460613191053470     -1.673815133546589      0.716354653614212
H       2.859756334176332      1.032240565356480     -0.602049626445819
H       1.950109867885514      1.863949716659094      1.851182391077610
H       1.083197860816808      2.498679574011982      0.390419458799002
C       0.705497340318241      0.637877964847569     -1.045128089544958
C      -0.557727740196739      0.660251102508584     -0.032040704742585
H      -1.164802627223538      1.535432225347735     -0.248847102425497
H      -1.263719769018421     -0.172849829770673     -0.183446641176019
C       0.393532805990335     -0.477168317920284     -2.093365028547004
H       0.778967193895565      1.506253597340653     -1.731294632052553
O      -0.570235708722452     -1.226844225018425     -2.193605007566230
C       1.817496056820629     -0.915333829793219     -2.688277906720263
H       2.344829261318781     -0.110229117192210     -3.205580151475696
H       1.670089103474952     -1.733997120151445     -3.401420806189872
H       2.439989684264336     -1.186918734903345     -1.841292034623818
22

C       1.350997351220970      1.821588371917447      0.822633033105213
C       0.249802727626883      0.916891859126006      1.407925881044514
C       1.005701901802532     -0.359539984937779      1.791669974756948
H      -0.486020895265228      1.465259513829178      2.014342381674634
C       1.930766562708511     -0.526214564917849      0.781365598712329
H       0.647625813443976     -1.229293434845559      2.392057867051533
C       1.884962963079118      0.634836628091643     -0.112815517080253
H       2.583698188695334     -1.426547634195670      0.605540794770066
H       2.770563026871742      0.697234062162438     -0.672142123615098
H       1.926373776546519      2.107030389366758      1.721452453423945
H       0.939664768858190      2.653732540624885      0.175962824970417
C       0.638085704105347      0.452614442987214     -0.970736884368132
C      -0.539680731543421      0.420789065024481      0.121352736086665
H      -1.320730191458649      1.186380888579956     -0.174726997137551
H      -0.969634695058806     -0.597613426080107      0.211959052101644
C       0.646376313882797     -0.576964947252909     -2.104639213071095
H       0.449812357307225      1.360556520359646     -1.659567635623034
O      -0.357158734766830     -1.087516593757021     -2.523736692148596
C       1.887330907540514     -1.049447422443138     -2.801574989067247
H       2.419667588283606     -0.262840668346001     -3.586091485721616
H       1.661825980809646     -1.901574454081558     -3.434977566227632
H       2.600328514784631     -1.350067973157397     -1.970271221899857
