22

C      -0.054358877019910      1.818292036192819      0.978000695886790
C      -0.885130400871850      0.756600608199369      1.646415371213540
C      -0.008396110223220     -0.265458063823011      2.008732505439470
H      -1.784426625062059      0.987833627452589      2.204802340157830
C       1.193718366157370     -0.113870754970751      1.298685222592910
H      -0.262245946600830     -1.114433596881321      2.628290239716101
C       1.120422421893490      1.020418721708359      0.528661857645340
H       1.993221352956530     -0.841390399401481      1.280148592263270
H       1.895057938714940      1.397305068361709     -0.125190678932640
H       0.287890694966570      2.516734345025499      1.757598249308760
H      -0.555458155466170      2.403955993682249      0.209272238163790
C      -0.700163294135400     -0.034993348405441     -1.014957068363840
C      -1.714487045356380      0.033886352619679     -0.075679580887860
H      -2.449619693011539      0.827769164010049     -0.151553653547790
H      -2.075477670016270     -0.904102434507051      0.329249252262580
C       0.037995126778830     -1.276911931387211     -1.164452438837120
H      -0.512837261450720      0.773727152348119     -1.710901131945380
O      -0.108000216134870     -2.202618371901111     -0.379100983467770
C       0.980229405324210     -1.405757663678131     -2.335145058936740
H       1.363078896085740     -0.442711049025371     -2.678088653987070
H       0.434233439777440     -1.866991205201431     -3.164376608054930
H       1.804753652694100     -2.067284250418121     -2.070410707689250
22

C       0.079073183275583      1.715282734801446      0.951480384543935
C      -0.865796079781714      0.658744444690859      1.560157881874534
C      -0.083846366700462     -0.355844351187389      2.078883271666946
H      -1.783300852333162      1.009591638431285      1.982572967611933
C       1.225882840739122     -0.181663071879880      1.458413776744322
H      -0.396516508371862     -1.297502612504188      2.545937369896295
C       1.342477082644836      0.907420580597813      0.704001931333489
H       2.005824544621888     -0.911832624310410      1.365433419207357
H       2.188823755271125      1.149229925345399      0.099540938221943
H       0.462038864075482      2.374942988546216      1.859833271520680
H      -0.396524954386249      2.439596283905869      0.228478147801073
C      -0.837189234988706     -0.283951913229685     -1.035080118405505
C      -1.810069419141741     -0.184895114464735     -0.060083097952839
H      -2.585565163410723      0.526202994316201     -0.182320259279580
H      -2.088513740599352     -1.103580502338091      0.466681765375105
C       0.005069647566834     -1.462152464705621     -1.075196421755293
H      -0.879262788931950      0.379065191787068     -1.870053976081008
O       0.091353067854340     -2.235270882199713     -0.136704527968263
C       0.865796501100283     -1.676222049839075     -2.364043281360361
H       0.320665111345652     -1.232587913166821     -3.250545273989287
H       1.053807868128773     -2.716659215966772     -2.552592332868201
H       1.839799465532874     -1.159263119165800     -2.240464237365530
22

C       0.072160174781877      1.611786890337286      1.067816031693360
C      -0.669834896980038      0.712919792862828      2.042152949403891
C       0.065098654284349     -0.419293907145926      2.185404138505386
H      -1.651842626161331      0.901201432089386      2.420800152475935
C       1.297485227804320     -0.352227118150985      1.434723208727518
H      -0.251726811376169     -1.341898784039742      2.709303935888411
C       1.327666470284181      0.863747959369378      0.743199845708409
H       2.023200340547199     -1.114634123541536      1.332979003319332
H       2.036263623934195      1.312962014808752      0.108793077001834
H       0.047535646840127      2.671325547701634      1.172054924878090
H      -0.468774527786212      1.481519797206531      0.103818433512072
C      -0.928450509132660     -0.534927416936742     -1.170882197105272
C      -2.026957397372553     -0.441651779475887     -0.410627267739609
H      -2.786535898249800      0.258740632186770     -0.493336273817062
H      -2.092992435620473     -1.105643317501441      0.436770426662852
C       0.051414129353058     -1.563255964320580     -0.995107047540769
H      -0.641434323483393      0.241520183038681     -1.817213124992902
O       0.121479339099531     -2.296795304435447     -0.022966555214264
C       0.880004756020997     -1.946913299598566     -2.220639461882907
H       0.323794382909541     -2.699880082677176     -2.852732298577713
H       1.854562025128814     -2.265322207060193     -1.911396661935940
H       1.079086404187590     -1.030796540915243     -2.806605489525662
22

C       0.088771113964096      1.649113005430642      1.318065287052483
C      -0.452486591312768      0.821201630156112      2.446361717459670
C       0.426346844532353     -0.252701847118285      2.528062248037814
H      -1.293549686249425      1.010711479633445      3.038030623888510
C       1.435754240827503     -0.311148239558891      1.502978500189769
H       0.335206395475294     -1.016914362689842      3.311377410319290
C       1.176589949273835      0.758297755510700      0.710692966464709
H       2.147620298392058     -1.103319727565607      1.427520897174085
H       1.634279922307316      1.077698241598015     -0.189715732449954
H       0.405078059736167      2.563435352809931      1.791714108766663
H      -0.608912906779034      1.997580442724820      0.512981061772549
C      -1.114706782391421     -0.885798880117945     -1.517666823504854
C      -2.107773986571073     -0.812080545153633     -0.638896875455395
H      -2.863370476354957     -0.074730733975561     -0.711759108285507
H      -2.232410014282355     -1.559950881593348      0.124142858927725
C      -0.108275808578507     -1.903683884212427     -1.160180340481788
H      -1.223753517357714     -0.369271004999769     -2.468982890272269
O      -0.142989635339964     -2.477096698693804     -0.077445462645610
C       1.140891861527543     -2.105497121456541     -2.038242781117733
H       1.309757658884194     -3.206860074336800     -2.033836058830850
H       1.997613163342900     -1.569139028851642     -1.632805484008725
H       0.908470998927631     -1.826780670297244     -3.083073458108935
22

C       0.122545061848522      1.659815905609129      1.461280368080370
C      -0.081117093481262      0.980493236814115      2.775837362089826
C       0.656043431037790     -0.133239417101962      2.829547888502498
H      -0.728181649219688      1.255131744385933      3.491181781208932
C       1.398120483244992     -0.277002371645170      1.566023041748190
H       0.521960191070377     -0.785329486355792      3.685119723689441
C       1.179022930912611      0.819744638894280      0.824468459279563
H       1.951522711506138     -1.069351034322764      1.117376880435337
H       1.468288207720264      0.813545151723366     -0.171119197247806
H       0.350303047886641      2.764588439439980      1.408185506865554
H      -0.843974865964014      1.599029397462314      0.902989866646983
C      -1.206192021744271     -1.385243007584434     -1.696684657604532
C      -2.287682467711400     -0.938661470735422     -1.028007897708562
H      -2.985816110829214     -0.157207056199298     -1.303227156595417
H      -2.468936062820271     -1.386239405234154     -0.043478799670898
C      -0.126503352079967     -2.223396807412311     -1.112742039776525
H      -0.908352296254078     -0.890342358218241     -2.664237858859107
O      -0.322716825603256     -2.995935651661770     -0.182213138044286
C       1.188638607176740     -2.075353175514253     -1.861285966418844
H       2.012310561009739     -2.537666360021604     -1.303414725474222
H       1.271778063271374     -0.940259129679095     -1.863856425676750
H       1.082879409970986     -2.518696512828205     -2.882415949744211
22

C       0.166515941770788      1.740789549667859      1.609536582832813
C       0.162827529649699      1.088454867887847      2.961305389544791
C       0.970834550984471      0.001579034658301      3.003820659521220
H      -0.393731631461694      1.527387634974547      3.702534238411735
C       1.426875640034689     -0.165300299921625      1.652784366419641
H       1.161704561318802     -0.616316591099992      3.854891444992527
C       0.941633842451701      0.786954978318966      0.800658120039180
H       1.974795916236506     -1.029114422997314      1.412718097190670
H       1.003774259884052      0.780328686421129     -0.248546344403243
H       0.518940711902361      2.782023394791580      1.531563065909055
H      -0.877796245482339      1.838022987224029      1.322308428707576
C      -1.253768048302050     -1.580975408126125     -1.799274030617515
C      -2.426806527708136     -1.352390927071420     -1.181259218436672
H      -3.295533617138149     -0.776018818272322     -1.563909788149154
H      -2.699454973338299     -1.783595142273303     -0.182389745703333
C      -0.156431920576881     -2.462335952881275     -1.174215055376657
H      -0.986260826911415     -0.924812511920844     -2.692127267829134
O      -0.472138023154970     -3.300995577880264     -0.347915407541119
C       1.286243083424510     -2.231922194785716     -1.589937977165440
H       1.869762759673122     -2.759204863096552     -0.887792532395814
H       1.566613877806600     -1.163725445672769     -1.641216272561458
H       1.386794427953424     -2.728673078812679     -2.559516523895906
22

C       0.196210156729898      1.867962633378169      1.819856046436406
C       0.326361203512787      1.261977864793429      3.199837151439982
C       1.067027288263052      0.115017108182077      3.055409749488142
H      -0.278137459349467      1.580257707766002      4.002865412383426
C       1.480432335178719     -0.053670387612741      1.646234809544182
H       1.297921641110279     -0.509770110539012      3.898064475465589
C       0.936520766640652      0.940365611504172      0.892601515729053
H       2.122358710285035     -0.828040399550139      1.377070289391261
H       0.985644541089526      1.024852191571183     -0.176499024203401
H       0.356609325554502      2.943582583366382      1.750191720846923
H      -0.880226002954318      1.881661648464940      1.496774389032614
C      -1.132863788452869     -1.626413522358763     -1.644158828563991
C      -2.449264147027901     -1.836421541063438     -1.458374675504992
H      -3.211529412223178     -1.041275732623469     -1.703470704346120
H      -2.885389525922378     -2.832745865024396     -1.096031558948553
C      -0.223356722471998     -2.736387756162788     -1.174398911335751
H      -0.769412038787467     -0.895282070420056     -2.424162512516514
O      -0.650736307811886     -3.584208437727026     -0.432694032934462
C       1.237120353707919     -2.602737903470004     -1.561667759116419
H       1.701441508469950     -3.578397173208843     -1.470716501685546
H       1.681748891545763     -1.886129708486078     -0.781751208936338
H       1.413657040528797     -2.100878873998924     -2.556194492106458
22

C       0.175106697080901      2.022471330355179      2.123568217831542
C       0.458893203505145      1.369551908660791      3.446860627171473
C       1.232197785772197      0.303046071180403      3.133911909449541
H      -0.138956130149109      1.559824110138166      4.343591382961469
C       1.589820676453659      0.211766061573072      1.715251937266995
H       1.391517393941421     -0.488778316562308      3.812341900573780
C       0.871733248223830      1.179865823451578      1.109668170823973
H       2.060332366254235     -0.581955467660461      1.210015359357347
H       0.997424786602776      1.401679236894941      0.033753791821470
H       0.391303357119375      3.091669022437720      1.972217544059615
H      -0.908167347605509      2.047610952675886      1.907666217450242
C      -1.194477194286672     -2.008156948587164     -1.600204210924792
C      -2.518492944037077     -2.095867256013470     -1.772094729495161
H      -3.142396906690375     -1.191223130494798     -2.069915953832189
H      -3.077549095370837     -3.093607938647860     -1.648110745163004
C      -0.252472850728975     -3.071409631266285     -1.186649280220558
H      -0.704178793160114     -1.022253067551281     -1.554010410201595
O      -0.608411138853026     -4.073425966186547     -0.616935758217284
C       1.137404623067509     -2.810807670191510     -1.622762179659720
H       1.724726014369891     -3.720672743009194     -1.766738307736872
H       1.521568399550185     -2.075310344640582     -0.910581623539120
H       1.192317851091955     -2.234175323307868     -2.584955265634131
22

C       0.111346530743468      2.179634847731903      2.412457791367153
C       0.585463599797297      1.431825138764340      3.586057954670832
C       1.467147256096050      0.467669214227095      3.244385143382868
H       0.108167394973330      1.463140543596207      4.617268733626854
C       1.542212352751430      0.457633763801948      1.802526893992854
H       1.788803599851519     -0.215429096523131      3.975481393765290
C       0.737997677408042      1.426169585115241      1.294840661571954
H       2.170458458615145     -0.246939135958321      1.326332080674017
H       0.647783215862110      1.711181111467963      0.225026222329738
H       0.387203900179340      3.281683975697940      2.328943922708821
H      -0.989679735570257      2.250731137315925      2.387247910512854
C      -1.242094905989315     -2.264725233533974     -1.674013092197693
C      -2.558572021946955     -2.502824686092932     -1.749822856807138
H      -3.199895807763472     -1.615369161627971     -2.057984075357703
H      -3.076778131456917     -3.483621012233657     -1.393224278682764
C      -0.267506850145221     -3.326306988005859     -1.330502634558345
H      -0.845794215980249     -1.392710184316166     -2.049973146234145
O      -0.635496210602435     -4.453707976783122     -1.021634036295463
C       1.206507426759915     -3.001568393096932     -1.512630532148669
H       1.854411229494134     -3.876021228597678     -1.297824079426143
H       1.577641025716593     -2.142581462872209     -1.019828595644408
H       1.364508071277848     -2.872017354696599     -2.591830202184894
22

C       0.155005652104949      2.381572074536068      2.698337909598108
C       0.828175545107238      1.536324173998760      3.764568782594461
C       1.602053116144502      0.558838635302322      3.231358324754636
H       0.453119235551836      1.561692392024275      4.888660161482772
C       1.420750043521916      0.679785008811098      1.753061217103549
H       2.222733338901263     -0.115716454428507      3.754341761555430
C       0.676247026343705      1.802236175642485      1.443437749883168
H       1.834981470497890      0.050571306258154      0.973536756609157
H       0.553521134394984      2.052614726939866      0.381798257879730
H       0.156610253884851      3.452034203061564      2.763478134532118
H      -0.954839204215431      2.109664655897983      2.822776957637385
C      -1.282223711710501     -2.569912952469954     -1.839118953566760
C      -2.542163918475598     -2.807185672529974     -1.451776840950702
H      -3.365291785822522     -2.003579542545519     -1.425043175048403
H      -2.897219860690583     -3.904947157744320     -1.223918792042966
C      -0.278657501344294     -3.677205587554458     -1.551884648167070
H      -0.869694349917941     -1.639323122163005     -2.107888994514734
O      -0.661555859325153     -4.832823329142421     -1.438520918581482
C       1.137122431241688     -3.215300723386546     -1.342716591864724
H       1.791473560537991     -4.022268808914108     -0.852016765905556
H       1.072590013670365     -2.389690289092634     -0.620476231418925
H       1.571233538870023     -2.851882219331356     -2.299139636713504
22

C       0.326206670397774      2.533677948481137      2.953234416296240
C       0.911574443236228      1.537090735747612      3.898156851031308
C       1.642575730364960      0.668787699211064      3.197784523042708
H       0.698938584916508      1.660055328285085      5.048408327328382
C       1.384479357443056      0.905662627752458      1.768910749139931
H       2.107731761522254     -0.253426208662872      3.434452327315099
C       0.607397772661564      1.971971192775305      1.620350288705317
H       1.819963589982835      0.223478127986952      1.064479963771501
H       0.233686652011938      2.369843977980497      0.699970949654323
H       0.794138709064963      3.524365236968354      3.179380054142920
H      -0.757694378471569      2.695807930270270      3.143103182654543
C      -1.368962730061425     -2.845450088069407     -1.619703407926849
C      -2.691291452927196     -3.009728241794340     -1.422645035607458
H      -3.293412474907538     -2.067245318467383     -1.348013150244599
H      -3.227803746094573     -4.003342646632103     -1.249175045092933
C      -0.300746949928032     -3.924122137110900     -1.644706220000525
H      -0.907125919623822     -1.795570742807796     -1.678484650123184
O      -0.542935227715642     -5.100432711139382     -1.794211346072629
C       1.103417362564919     -3.450488562654212     -1.402566754606883
H       1.667122604367264     -4.436969513709478     -1.319716424518683
H       1.269255424132487     -2.882372394650218     -0.482196324725897
H       1.401286037103098     -2.783329543667139     -2.196805790351479
