22

C      -0.054358877019910      1.818292036192819      0.978000695886790
C      -0.885130400871850      0.756600608199369      1.646415371213540
C      -0.008396110223220     -0.265458063823011      2.008732505439470
H      -1.784426625062059      0.987833627452589      2.204802340157830
C       1.193718366157370     -0.113870754970751      1.298685222592910
H      -0.262245946600830     -1.114433596881321      2.628290239716101
C       1.120422421893490      1.020418721708359      0.528661857645340
H       1.993221352956530     -0.841390399401481      1.280148592263270
H       1.895057938714940      1.397305068361709     -0.125190678932640
H       0.287890694966570      2.516734345025499      1.757598249308760
H      -0.555458155466170      2.403955993682249      0.209272238163790
C      -0.700163294135400     -0.034993348405441     -1.014957068363840
C      -1.714487045356380      0.033886352619679     -0.075679580887860
H      -2.449619693011539      0.827769164010049     -0.151553653547790
H      -2.075477670016270     -0.904102434507051      0.329249252262580
C       0.037995126778830     -1.276911931387211     -1.164452438837120
H      -0.512837261450720      0.773727152348119     -1.710901131945380
O      -0.108000216134870     -2.202618371901111     -0.379100983467770
C       0.980229405324210     -1.405757663678131     -2.335145058936740
H       1.363078896085740     -0.442711049025371     -2.678088653987070
H       0.434233439777440     -1.866991205201431     -3.164376608054930
H       1.804753652694100     -2.067284250418121     -2.070410707689250
22

C      -0.026252887457697      1.815479360655360      0.853606949996129
C      -0.992909789875855      0.746843439169130      1.341112581542953
C      -0.086154437777080     -0.309966059950900      1.976919402278472
H      -1.814301111974468      0.973895562739464      2.028282504365378
C       1.099838456139205     -0.193975508412969      1.365428578413569
H      -0.456831725402381     -0.945709806207979      2.751045994270411
C       0.931691024910854      0.735421041104100      0.315994111120815
H       1.982713837391222     -0.776396491609603      1.589728246297170
H       1.761540382939590      0.923762992387647     -0.329277597334994
H       0.307644124383758      2.339950344889857      1.827029786327606
H      -0.389237222196070      2.472262490282873      0.051000000347936
C      -0.386366042896452      0.033508187974282     -0.880829361901392
C      -1.561650600250706      0.110566853663883      0.021435627886717
H      -2.341931146132013      0.748342478496300     -0.351231483808857
H      -1.931714933060814     -0.850929529916293      0.241101388200047
C       0.107853032419817     -1.341379571308383     -1.261707333099015
H      -0.506700077389184      0.669530494967648     -1.752419705812442
O      -0.091286444955284     -2.319228063099168     -0.541504232183773
C       1.062557388382539     -1.460480252953482     -2.455845570376580
H       1.050302005186561     -0.523024110147497     -3.067024549426502
H       0.669489955340461     -2.223236265735820     -3.211311915604332
H       2.020440967073610     -1.741689052473727     -1.988619801866351
22

C       0.049540027972786      1.810262005302747      0.767552188952332
C      -1.053262111023958      0.847010178207250      1.343889489976324
C      -0.136604627797088     -0.326448572224149      1.971502167858125
H      -1.949303261079834      1.141882764679982      1.904308367355555
C       1.053092404346367     -0.367178540030110      1.296825320866619
H      -0.596377154590358     -0.918389194612198      2.725785861203413
C       0.846449549872765      0.595749357522272      0.124933329063892
H       1.896102315215542     -0.983103137991882      1.600231480635538
H       1.648110549974123      1.043914683755860     -0.434865816814240
H       0.778528911401885      2.329074425133022      1.379347253545095
H      -0.365479425251831      2.512467534829322      0.039228142107690
C      -0.100510347890747      0.051239625382215     -0.843660246350636
C      -1.526215569308535      0.142394898611541     -0.091634446219158
H      -2.349143868299376      0.686645252389195     -0.594038344922549
H      -1.803442932800809     -0.895960127134789      0.046363252482854
C       0.161880200046362     -1.447909618785515     -1.342855272958331
H       0.063919226920333      0.782756132397111     -1.656451387389030
O      -0.266356907131370     -2.408911160144361     -0.738958160425648
C       1.178291223861688     -1.587765966812773     -2.422970188758647
H       1.028492335371061     -0.942064545073003     -3.311927304335088
H       1.311791947823210     -2.665259402540328     -2.707116396051719
H       1.974546511181470     -1.121173987049798     -1.801355997336482
22

C       0.076926363487970      1.663073402733802      0.674374036175722
C      -1.067211923462966      0.833500475024699      1.152002050229787
C      -0.236459345151237     -0.350513644645458      1.877355670925471
H      -1.888294236264157      1.316099076096207      1.718283361171529
C       0.928436879076857     -0.429165005407476      1.206232935445996
H      -0.539434198325094     -0.812580006962634      2.798719313325256
C       0.956417507367720      0.467830387222662      0.127761544806242
H       1.670189321859267     -1.198330918311599      1.411542288494791
H       1.908156911201321      0.874165807147535     -0.242579046731552
H       0.609547503741354      2.286594892798618      1.368205921678160
H      -0.269449753928891      2.377091823794157     -0.115163309434004
C      -0.049886977563872     -0.030192632971098     -0.886718471215379
C      -1.333268669071042      0.297854732715028     -0.217496609749189
H      -2.038954665456919      0.894578175082451     -0.887282461517703
H      -1.878053454691352     -0.722431804051782     -0.136659092775881
C       0.133842649298965     -1.492749544080329     -1.338646002651906
H       0.165057843981355      0.592944480143448     -1.774140740991588
O      -0.409596853007978     -2.443815495360290     -0.851894652309840
C       1.357466861796112     -1.658699763976093     -2.310849500091627
H       1.125393590616408     -1.226635873002686     -3.281300092796694
H       1.483391543074309     -2.724905679336619     -2.208186225278271
H       2.172514195089061     -1.006510385666461     -1.961888981656208
22

C       0.209735154079412      1.639465454827640      0.676689303453329
C      -1.014074719080016      0.724338789846856      0.976516530078821
C      -0.289299509959104     -0.285959909614836      1.773933603303667
H      -1.645231485217328      1.289647072716620      1.668345728637254
C       0.889969867788411     -0.515638720372033      1.149248681655042
H      -0.813021850244990     -0.874698507408275      2.580931917179793
C       1.106623700157558      0.487492725840529      0.059413999216079
H       1.583608589300997     -1.169352684979566      1.677414208619814
H       2.175357194771152      0.766507662202591     -0.167157747751158
H       0.551338731408701      2.105190957766307      1.638292497782876
H      -0.050430148633325      2.424691814930259     -0.086878286587362
C      -0.002334545279824     -0.003602793742720     -1.076923224725346
C      -1.339863289602635      0.180369436208013     -0.337380867234349
H      -1.686950342773107      1.040186571166997     -0.877977630167479
H      -2.046316785901333     -0.635678901105636     -0.508268866097256
C       0.156879521716951     -1.507127324550243     -1.364906951785080
H      -0.108963559929994      0.500554613665782     -2.100322896205180
O      -0.569023256085771     -2.365141945136261     -0.971026818379854
C       1.381361631032350     -1.895449439575447     -2.107427445259582
H       1.246651414600678     -1.677290050712270     -3.172587958329402
H       1.660336008877708     -2.871775166416891     -1.675192833052070
H       2.124961948389414     -1.137074664322537     -1.681892849196208
22

C       0.243689426323694      1.646824208328291      0.590942654111888
C      -0.990412781525357      0.738812818374363      0.847380871340594
C      -0.341323001901151     -0.369578189941277      1.702677353692962
H      -1.829179087117387      1.283547039119419      1.366720581925875
C       0.882571789521747     -0.425177860027447      1.215322244922870
H      -0.920967665762112     -0.970868242421280      2.452864326068994
C       1.046319192023237      0.490636253021397      0.012422822363197
H       1.500943832874066     -1.339095876219133      1.428857694960341
H       2.073598310227792      0.696296536902658     -0.383141960669252
H       0.727292150926069      1.973550389359849      1.548815666768954
H       0.024761761053561      2.484433812347557     -0.043154293697991
C       0.074587312873307     -0.103298007794765     -1.059247432237625
C      -1.367513508117534      0.196818019889268     -0.515040602876643
H      -1.885326134033769      0.866731784383885     -1.186242682606548
H      -1.940833565149884     -0.682422311916563     -0.267769505679536
C       0.239739660296015     -1.546558509074436     -1.387406517295571
H       0.327927788704986      0.428895084940068     -1.945872177119525
O      -0.643752897163940     -2.380206767558349     -1.173445132789954
C       1.531996354719670     -2.055871425034788     -1.928216938756251
H       1.349053046218512     -1.837816292723114     -2.976567439031015
H       1.385791714955467     -3.096209993656771     -1.723729558339551
H       2.457948316499857     -1.664027794085532     -1.485831407399589
22

C       0.275088100842739      1.624630236701748      0.396449176078404
C      -1.028527552744546      0.877508220951482      0.846146824305015
C      -0.396669633543977     -0.201577333356013      1.715401831173476
H      -1.934815652364446      1.407033787865494      1.152014481353846
C       0.879367705780663     -0.469628626956298      1.219201609803510
H      -0.989532763115661     -0.971923506999892      2.294952287251513
C       0.987142767483157      0.339334733833571     -0.038450447352383
H       1.547340463413944     -1.284370994267279      1.552082412684485
H       2.016255250279019      0.386987289940266     -0.463107603897946
H       0.918521042360020      2.089425089737085      1.141237236195433
H       0.219993046878810      2.296770902720924     -0.410086297284324
C       0.011689786382881     -0.201102939782477     -1.109515540320559
C      -1.329667186197430      0.188591736973027     -0.708233047444415
H      -1.800319955888190      0.940027570043595     -1.443600352272850
H      -1.974322530686781     -0.786757229418470     -0.642041998301519
C       0.275715098502616     -1.643791641914610     -1.246520131153402
H       0.497031408013602      0.277436282147856     -2.047177827483878
O      -0.631847930573339     -2.453673402787044     -1.360406581903752
C       1.675408307753975     -2.156833475010706     -1.763203236464688
H       1.831435397121775     -1.630758792795714     -2.767895055054395
H       1.589141468722104     -3.226844805242425     -1.888353833943578
H       2.413553812295768     -1.974318684394629     -0.989126132622719
22

C       0.311623372059681      1.616062720744827      0.253689251016981
C      -0.968550571651996      0.988751731200711      0.638274996513398
C      -0.467754763840413     -0.063697183005825      1.669078397113405
H      -1.723884601825912      1.744756496867055      0.818549819607367
C       0.709483474062428     -0.520921354508373      1.227440643080017
H      -1.204813741392890     -0.601587156551039      2.321756772617885
C       1.041295284101768      0.287711500057027     -0.095160648017823
H       1.263794778602961     -1.443418093568209      1.465600769449633
H       2.092316885215826      0.235138646616646     -0.322454037623815
H       0.739196012313891      2.068948826557330      1.159772660242417
H       0.407410305977849      2.341124073579672     -0.591376935112929
C       0.094699323647223     -0.301834315687022     -1.201814754287706
C      -1.295274642839325      0.195260490607356     -0.663158832772514
H      -1.799262494026922      0.879133067443837     -1.392149611475974
H      -2.131995699707004     -0.639105627266619     -0.644420241034561
C       0.294126444151022     -1.820746240250274     -1.320580478745625
H       0.408692750541228      0.033280363496143     -2.155779030208242
O      -0.624630920753539     -2.578070167827378     -1.441156209597550
C       1.744246132099973     -2.215688719071713     -1.553789194374996
H       1.917049344171725     -1.516981758540743     -2.398085683646019
H       1.839201937827836     -3.138460538342641     -2.169530195945124
H       2.450335005646099     -2.069757774829509     -0.732982906214556
22

C       0.342467287315479      1.564894018070459      0.259402170456388
C      -0.981984196841748      0.845712724974960      0.567013842614304
C      -0.547115339500526     -0.036392617896884      1.554625562516910
H      -1.838173495982882      1.465333108674792      0.816300194422296
C       0.707152676939959     -0.461215766245726      1.260634086776757
H      -1.156214216405209     -0.375089437886940      2.406198317426081
C       1.124923627061940      0.281676176629545     -0.074507511178566
H       1.048455698177059     -1.403448687511790      1.782227496108338
H       2.189319875514676      0.233626841111679     -0.226402806211569
H       0.780178896849445      2.083748561910514      1.114486909541549
H       0.333055670412855      2.131047124325594     -0.773417770568383
C       0.217799080613897     -0.265338017646427     -1.276057041810683
C      -1.226970530036418      0.166134568289815     -0.796245946785588
H      -1.708787570930874      0.707575961888227     -1.569210436786440
H      -1.840246182483486     -0.669273370678137     -0.684616097849529
C       0.262187859956789     -1.855276435038849     -1.450843013217906
H       0.459099298362311      0.065681917501367     -2.328155135331089
O      -0.702802401507507     -2.547587227366376     -1.498989605801786
C       1.748627788563274     -2.341059249088875     -1.495072477027733
H       2.378965817782991     -1.764343150993327     -2.177598632807442
H       1.736441858234756     -3.375858028611955     -1.884892459590023
H       2.249902012315994     -2.102010270969176     -0.512535394194324
22

C       0.283215940843864      1.641325752558372      0.166028151005292
C      -0.999280057614530      0.901930929703218      0.488747751237116
C      -0.635142044977571     -0.274655873914860      1.430697009563959
H      -1.887226539251486      1.515124596765439      0.649260788217639
C       0.636276479283626     -0.450725269630480      1.183594811971272
H      -1.174478671152776     -0.940665082097753      2.100221333926694
C       1.096265284026873      0.342571605245226      0.032246197110859
H       1.290816879074524     -1.048673368206043      1.878443194537901
H       2.198460662894847      0.362990308233127      0.041805011338789
H       0.727354350400887      2.076542614254079      1.020326541770818
H       0.369783816169979      2.284662789692499     -0.693424174680007
C       0.357009297908427     -0.286653640262163     -1.264713162162040
C      -1.174476393061645      0.174876498636137     -0.924269474124123
H      -1.443964871172549      0.901454370199468     -1.808246338309390
H      -1.917593425458671     -0.572716864764032     -0.827891601821461
C       0.374111970038859     -1.853803147604773     -1.434775823859199
H       0.710143981050026      0.227068200136183     -2.164193160835495
O      -0.665583858485983     -2.466376218862001     -1.544558942536845
C       1.726449595491624     -2.640920894432495     -1.437155136990604
H       2.290990779034879     -2.217288617502702     -2.316475193878734
H       1.409109528135543     -3.712092511712549     -1.562396991552794
H       2.437763919639655     -2.331173414045377     -0.653133931495180
22

C       0.394653055778802      1.600311874164534      0.156047687035621
C      -0.994294256779696      0.884047112387653      0.381175901231201
C      -0.740991817756297     -0.374624625367450      1.359805563610578
H      -1.815828306751281      1.594797574372630      0.476207202627120
C       0.601822570161393     -0.620020858445579      1.138979071087268
H      -1.509556058389698     -0.896472326570707      1.940685103670208
C       1.069907295172786      0.238255882968985     -0.063894746185882
H       1.390017110220336     -1.107266060272990      1.685775996464324
H       2.159393375412724      0.207359626064466     -0.363629943261338
H       0.767377645425496      2.315111918312391      0.950224700308545
H       0.599391267369390      2.093154984940466     -0.757174419856551
C       0.326873143766216     -0.344956263936747     -1.216622636341829
C      -1.126868505693378      0.254478014835145     -1.033224462605891
H      -1.269122890584340      1.090729126061059     -1.811346055996912
H      -1.797270734031327     -0.654234323459922     -1.047615552839021
C       0.380783262470565     -1.847884182581867     -1.386109878722896
H       0.823279901635976     -0.075916368790039     -2.185689679063306
O      -0.649386959485198     -2.495835344324449     -1.563625803522527
C       1.766268659459963     -2.462026683806683     -1.356155423821197
H       2.255051120668245     -2.389770825025948     -2.358579384563924
H       1.606352073810333     -3.469288428073541     -0.934677154589905
H       2.407988482584023     -1.917278092760689     -0.696898857618100
