22

C      -0.054358877019910      1.818292036192819      0.978000695886790
C      -0.885130400871850      0.756600608199369      1.646415371213540
C      -0.008396110223220     -0.265458063823011      2.008732505439470
H      -1.784426625062059      0.987833627452589      2.204802340157830
C       1.193718366157370     -0.113870754970751      1.298685222592910
H      -0.262245946600830     -1.114433596881321      2.628290239716101
C       1.120422421893490      1.020418721708359      0.528661857645340
H       1.993221352956530     -0.841390399401481      1.280148592263270
H       1.895057938714940      1.397305068361709     -0.125190678932640
H       0.287890694966570      2.516734345025499      1.757598249308760
H      -0.555458155466170      2.403955993682249      0.209272238163790
C      -0.700163294135400     -0.034993348405441     -1.014957068363840
C      -1.714487045356380      0.033886352619679     -0.075679580887860
H      -2.449619693011539      0.827769164010049     -0.151553653547790
H      -2.075477670016270     -0.904102434507051      0.329249252262580
C       0.037995126778830     -1.276911931387211     -1.164452438837120
H      -0.512837261450720      0.773727152348119     -1.710901131945380
O      -0.108000216134870     -2.202618371901111     -0.379100983467770
C       0.980229405324210     -1.405757663678131     -2.335145058936740
H       1.363078896085740     -0.442711049025371     -2.678088653987070
H       0.434233439777440     -1.866991205201431     -3.164376608054930
H       1.804753652694100     -2.067284250418121     -2.070410707689250
22

C      -0.028978655093061      1.806665469164606      1.011099834296613
C      -0.873283557685886      0.702152234002656      1.644933506852069
C       0.006667092866794     -0.299940407997008      1.989844495454356
H      -1.775872763219031      0.877581011702290      2.298689582947136
C       1.224407845923320     -0.139036718470135      1.299263763846016
H      -0.294358172399254     -1.155218989639524      2.613584927200952
C       1.144735733122701      0.999123169037972      0.564658004373366
H       2.038197962007541     -0.862795176896807      1.394517372178063
H       1.857421962801555      1.393578797850927     -0.170713369321360
H       0.364521561151707      2.516131809762003      1.791387179343839
H      -0.561720510062936      2.426361656644414      0.253698072566083
C      -0.729550220434740     -0.022355702901845     -1.019534770986965
C      -1.701484934705315      0.016968118627580     -0.016145604969231
H      -2.517899810935126      0.743907397921264     -0.096655610609968
H      -1.938398732589599     -1.053651606132823      0.186140245441146
C       0.038485528254227     -1.279404920486146     -1.142857296034556
H      -0.439897702703249      0.825245163001661     -1.699827070177861
O      -0.078203565491138     -2.246770333371076     -0.374886766229251
C       0.924244777685553     -1.392305631966180     -2.335414661576056
H       1.328807433776976     -0.442490814165270     -2.682105606816760
H       0.287362647125983     -1.740855617543132     -3.200076659051026
H       1.723978220299058     -2.105411204463681     -2.046838707562221
22

C      -0.008911678557447      1.796435169385192      1.049312838374099
C      -0.880470626579903      0.665846474636535      1.643127160831775
C       0.033024469985441     -0.351102622360581      1.981428998129942
H      -1.693031541889561      0.809062579005986      2.294489330081278
C       1.254725447242790     -0.178332455080865      1.315459026572972
H      -0.270046801605728     -1.196946054386699      2.589319986919836
C       1.166163578291597      0.994201684177598      0.584880734148683
H       2.084548830028463     -0.871337453535631      1.419794464785713
H       1.863160084107505      1.371448853533131     -0.166307202060495
H       0.363949587628315      2.472104016053526      1.820743484988049
H      -0.514403995596403      2.410827868360403      0.314119089957071
C      -0.743101237282917     -0.005656728430290     -1.019706363782245
C      -1.690039221228524     -0.007296701451382      0.034805097430379
H      -2.586467058773101      0.653384233981108     -0.024769994202131
H      -1.892649731531651     -1.102476404428759      0.181175125576153
C       0.034400296114723     -1.285781881432473     -1.122000088390669
H      -0.442664503285347      0.791692903317956     -1.631132257822508
O      -0.048017830535375     -2.277969864214414     -0.376218521282846
C       0.868908447015295     -1.387562836294553     -2.344399610034702
H       1.331000427029789     -0.417260384578341     -2.668682054481095
H       0.212181575511086     -1.652723076048023     -3.152808198492650
H       1.602923681976865     -2.153765580783582     -2.143221310702494
22

C       0.001342548593890      1.776881065131409      1.091049950875859
C      -0.874486000959518      0.631056237973143      1.625788130770368
C       0.063028398712372     -0.403673649964325      1.975882559144174
H      -1.745718986871209      0.815876089973367      2.353868601331543
C       1.281854360343692     -0.214071565637853      1.335157288332815
H      -0.184574540039577     -1.289639771471612      2.585296087869073
C       1.181912460900889      0.991478930746113      0.593491095299822
H       2.140078061103451     -0.892531281687395      1.354960417962129
H       1.926564331301986      1.340503321823650     -0.122790729882239
H       0.347377725264526      2.422710360691536      1.938853407635494
H      -0.481216555450691      2.407803088008924      0.311168512841816
C      -0.748695905738085     -0.015014927888225     -0.990923178608353
C      -1.679443878797506     -0.037148315735712      0.079461121432731
H      -2.581387596251075      0.539636894144840      0.066438617657882
H      -1.926246039500225     -1.045681642335024      0.324935904126146
C       0.021941101541167     -1.294749914475735     -1.102363561757232
H      -0.476253566214689      0.855335519875301     -1.679020676422869
O      -0.021604624758262     -2.288186050616632     -0.379280182568374
C       0.825175359028534     -1.372623592618720     -2.356126732806731
H       1.328436954871774     -0.455332105942138     -2.596630084660418
H       0.112046373088628     -1.634104326688659     -3.190340910907151
H       1.537914053574535     -2.246143452664072     -2.320457249624224
22

C       0.008147956419685      1.749697324383374      1.126528096853553
C      -0.873265774939401      0.591666804863005      1.610626217480916
C       0.091241927018719     -0.456980116776645      1.977852163958474
H      -1.658882626574603      0.819535871682895      2.276876439461650
C       1.304900551103939     -0.224114663533155      1.346688938240832
H      -0.086597334479774     -1.351804886920835      2.561191941336433
C       1.190948339430753      0.970765911805479      0.606971665796543
H       2.161211194981328     -0.898747118134623      1.266986911108600
H       1.996207078338036      1.346795619597904     -0.052476335692924
H       0.301424480005317      2.327950505778511      2.027172180535905
H      -0.424936745754919      2.394757170832032      0.371235402666540
C      -0.741236497229735     -0.037389834453643     -0.949060297156326
C      -1.662018383826657     -0.058960663356767      0.129638538846490
H      -2.611344442857042      0.555322926797898      0.098295357542687
H      -1.963985692253114     -1.103956299858332      0.525336414445029
C       0.010648167760486     -1.301695074804438     -1.099995357442966
H      -0.601627326401875      0.762540091375692     -1.611129882590645
O      -0.004948122189663     -2.286300523222542     -0.377189037295806
C       0.789964062652877     -1.374691819706136     -2.378893235263924
H       1.369589831432605     -0.415258919948682     -2.578276565168519
H       0.076870941067216     -1.539275125308925     -3.194194944332709
H       1.431142739053248     -2.236782679950923     -2.457281919619693
22

C       0.022477948044138      1.709502667940709      1.156798653797539
C      -0.859088309400011      0.541215348047910      1.585804082827650
C       0.125689189762383     -0.497970074500424      1.987044548937656
H      -1.682231899021897      0.831396261216997      2.300940724196604
C       1.322033084186557     -0.222250230511678      1.345527617213757
H      -0.054473771225699     -1.423915762107222      2.554211043051788
C       1.196017346085285      0.943902621190419      0.620581119269899
H       2.150286741278179     -0.902590590243944      1.211091976365763
H       2.008970903298938      1.365976393689109      0.050578963285438
H       0.252043116856793      2.223060877739272      2.103870122829061
H      -0.414191040859684      2.434868535481836      0.437567075059778
C      -0.732266921184210     -0.088239621237628     -0.878520790236401
C      -1.659823490904378     -0.084197454658741      0.202227116999953
H      -2.499331518837316      0.578654667177574      0.076973592557796
H      -1.931416562576806     -1.021831603207942      0.580235831216825
C       0.005261045397245     -1.305643705501293     -1.122749952220710
H      -0.727379800634542      0.753205170201893     -1.635899615831712
O       0.004434218216136     -2.278124857186989     -0.367375741901499
C       0.765312919433148     -1.365499371653914     -2.413243750092475
H       1.341276457693530     -0.486240475017461     -2.566332287903926
H       0.015881442230586     -1.366790110882530     -3.234884755142044
H       1.393443908338321     -2.275985454130673     -2.520730781251966
22

C       0.033920946651640      1.667363838377448      1.178692352067584
C      -0.851660313986145      0.487929077845167      1.568258551093900
C       0.164312376459635     -0.528620812979023      2.000734964464567
H      -1.646100171177199      0.746632012352163      2.298207233377702
C       1.330679085684206     -0.229892534938808      1.341372191470648
H      -0.075331461792995     -1.452966904992434      2.520279853278588
C       1.194075752072546      0.927682410271994      0.628449040836912
H       2.161916082745297     -0.935289613165596      1.205447765725754
H       2.035388507960148      1.424203433253132      0.100862849573768
H       0.248826910311396      2.150679352856816      2.161426544822083
H      -0.423614567242314      2.431165091325010      0.539152354246088
C      -0.715932866095173     -0.134858720889126     -0.812044014616859
C      -1.646865762225607     -0.090307399760427      0.284493552656387
H      -2.447019266485085      0.644230123103490      0.044038749882209
H      -1.986012189146060     -1.134040645502929      0.623972018840991
C       0.002935638319209     -1.316177419303266     -1.149896590234908
H      -0.816394166119843      0.634925264526073     -1.565323004811533
O       0.013950660412774     -2.264908321996637     -0.351812680014202
C       0.735900458285457     -1.366911877071221     -2.455017609611367
H       1.394354393356509     -0.457739907432657     -2.592669754545628
H      -0.016251580646695     -1.220873053981576     -3.263133627129280
H       1.327535019227206     -2.284198096456193     -2.546991316167516
22

C       0.036141419059732      1.632232631500335      1.202854292754858
C      -0.845700063372175      0.432736162079008      1.564998971949306
C       0.198273376145789     -0.549488675201638      2.012188563048610
H      -1.565177307336710      0.629009827846721      2.333825131853738
C       1.345106671692780     -0.264687086377752      1.346059927659051
H      -0.086747159993532     -1.484778764915317      2.499699708498524
C       1.192459045681729      0.936347718233926      0.621540727764540
H       2.185413748750458     -0.944039248041535      1.258705363122809
H       2.016790280951058      1.470905323325760      0.172173271695588
H       0.302936077520216      2.078284167881486      2.180036490411481
H      -0.453262168268799      2.408479994169731      0.601030995077284
C      -0.693023033356313     -0.171847170346441     -0.757568334516363
C      -1.633357847547018     -0.109383384788252      0.363853173566651
H      -2.395562616566470      0.638190173043575      0.101736864155380
H      -2.059941385116648     -1.078293281092112      0.609312807254838
C      -0.004403939984522     -1.340713289783670     -1.163513822890803
H      -0.859302050268172      0.579220400103968     -1.525692473282479
O       0.022863808684053     -2.253429453349373     -0.343905156440837
C       0.705790433452420     -1.355625556747053     -2.502503109635687
H       1.420227022990169     -0.525623891049178     -2.562151175807510
H      -0.007092966161630     -1.145122140923436     -3.288814133710965
H       1.243787664122325     -2.297006060371871     -2.599051646222297
22

C       0.022609966705087      1.601683485065448      1.230587354212412
C      -0.829274113614187      0.377833820401820      1.592060417855191
C       0.209146451664199     -0.570962907747928      2.016921667740776
H      -1.542452068689285      0.550136812353023      2.477436880801756
C       1.370472204356918     -0.309018150425613      1.347178039342195
H      -0.030158746643976     -1.507624112540389      2.526254964093096
C       1.186886966892975      0.940396854749357      0.607772535438313
H       2.268851947511148     -0.947296234017807      1.328185556766136
H       2.033037513390877      1.540786963361535      0.198515541604460
H       0.403388366734471      2.009008532293108      2.187502950191633
H      -0.470244109159809      2.376572544756879      0.614543849207063
C      -0.672190959076803     -0.181623241485480     -0.722599908158385
C      -1.615616328194542     -0.129969086329632      0.422679053127848
H      -2.387012811040440      0.613056731182722      0.216866720064827
H      -2.173115183338182     -1.059325105906425      0.642066486973948
C      -0.012521875498540     -1.365489147749486     -1.160263231102820
H      -0.864334685616016      0.594716905552543     -1.528688508223951
O       0.039997681810491     -2.252493769573929     -0.343359197707375
C       0.674325628993376     -1.343313242396834     -2.539336703861136
H       1.486245104173282     -0.598189011068018     -2.506351007286074
H      -0.028458136763829     -1.113966834705017     -3.383062630130238
H       1.154523541980852     -2.346967124361515     -2.673202484520143
22

C       0.003084230287078      1.565241188137313      1.259277957286041
C      -0.820749426590464      0.337506535598263      1.673506326959158
C       0.230840203435225     -0.603264059619565      2.015142833535465
H      -1.471163421897839      0.499402124770871      2.480337799700265
C       1.404800156254678     -0.336084227254502      1.347578929618017
H       0.045849091833168     -1.508203841170792      2.580567840251540
C       1.177778349600811      0.916463540899295      0.594707979552242
H       2.322875860015056     -0.915247360650454      1.368461995192147
H       1.972807399726316      1.572913336588998      0.200181017544625
H       0.444280772723481      2.002116545830550      2.164893154222691
H      -0.496183739078202      2.320502990865202      0.657597619141027
C      -0.657903835465165     -0.156026882966921     -0.712876126763902
C      -1.599222442874306     -0.153706140075665      0.453050671546013
H      -2.395469800127769      0.619865685319342      0.306234108985773
H      -2.225370239589392     -1.060841009748086      0.695631755956911
C      -0.015828815286952     -1.372236210744176     -1.153342913102711
H      -0.819995452693714      0.565567660145574     -1.455673783803789
O       0.064040933701749     -2.276683396521201     -0.342058908367571
C       0.636634866322919     -1.344767428574306     -2.568448763914621
H       1.538381378467794     -0.661459551843738     -2.492496065903867
H       0.017945816047312     -1.074666019478468     -3.416770123781499
H       1.001499374388689     -2.331815974361362     -2.785272855544231
22

C      -0.013070456390157      1.520509545847124      1.288185534809847
C      -0.801677533616931      0.309100812133114      1.768173052570551
C       0.282054905148082     -0.651155705573622      2.009807780936073
H      -1.551185802851235      0.490394654943493      2.613298701470481
C       1.426926359821239     -0.339990924018215      1.344342997024450
H       0.123148081502017     -1.524622554229645      2.660020639682976
C       1.154394609376380      0.870409088944428      0.590483165233505
H       2.364678319967365     -0.897069859416960      1.371225472294879
H       1.889294173971993      1.542881589196730      0.140493369306889
H       0.427359298000540      2.063415619170169      2.160906807819893
H      -0.560294779261084      2.285611273892346      0.682541232549642
C      -0.647577091369590     -0.132069588797411     -0.700130578386090
C      -1.591178765145313     -0.167670178589426      0.462316542520922
H      -2.345167435307123      0.604487675639370      0.338405853452614
H      -2.120530592654513     -1.063607592802622      0.692976372396305
C      -0.021355093569048     -1.364817818403868     -1.150148968112295
H      -0.778107305134142      0.701022799659321     -1.486473384403143
O       0.089853422321019     -2.313156404346304     -0.343597522685206
C       0.606984293300828     -1.350764432425851     -2.574483187661651
H       1.500958771143621     -0.771543364370880     -2.518295453515548
H      -0.007720026628621     -0.954065962972592     -3.420398239504916
H       0.912882590462979     -2.388954511336223     -2.895803619659723
