22

C      -0.054358877019910      1.818292036192819      0.978000695886790
C      -0.885130400871850      0.756600608199369      1.646415371213540
C      -0.008396110223220     -0.265458063823011      2.008732505439470
H      -1.784426625062059      0.987833627452589      2.204802340157830
C       1.193718366157370     -0.113870754970751      1.298685222592910
H      -0.262245946600830     -1.114433596881321      2.628290239716101
C       1.120422421893490      1.020418721708359      0.528661857645340
H       1.993221352956530     -0.841390399401481      1.280148592263270
H       1.895057938714940      1.397305068361709     -0.125190678932640
H       0.287890694966570      2.516734345025499      1.757598249308760
H      -0.555458155466170      2.403955993682249      0.209272238163790
C      -0.700163294135400     -0.034993348405441     -1.014957068363840
C      -1.714487045356380      0.033886352619679     -0.075679580887860
H      -2.449619693011539      0.827769164010049     -0.151553653547790
H      -2.075477670016270     -0.904102434507051      0.329249252262580
C       0.037995126778830     -1.276911931387211     -1.164452438837120
H      -0.512837261450720      0.773727152348119     -1.710901131945380
O      -0.108000216134870     -2.202618371901111     -0.379100983467770
C       0.980229405324210     -1.405757663678131     -2.335145058936740
H       1.363078896085740     -0.442711049025371     -2.678088653987070
H       0.434233439777440     -1.866991205201431     -3.164376608054930
H       1.804753652694100     -2.067284250418121     -2.070410707689250
22

C      -0.241878024934738      1.764268430992838      0.848410572023513
C      -1.082797861632219      0.560691580682813      1.336334018218710
C       0.035441480290605     -0.327137860192591      1.943046972049868
H      -1.921336085843616      0.777506797259739      2.015268107645130
C       1.158806406937309     -0.135268922889785      1.297634150105608
H      -0.235464994917040     -1.121905859274988      2.669604034044808
C       0.798994136122647      0.883983317336844      0.188247871630794
H       2.116041521493911     -0.703330339045760      1.270424547645233
H       1.701354474394497      1.288558191220256     -0.355309885762955
H       0.199806204388952      2.184520693592806      1.737828608574540
H      -0.837587953550563      2.510239472147674      0.280135720632660
C      -0.336966810074144      0.037796733198501     -0.874202210782071
C      -1.550238116849287     -0.037840785303878      0.125357354645208
H      -2.370160468493190      0.565777384872802     -0.253512254539142
H      -2.055866250036525     -1.005905640758002      0.375130343227064
C       0.148332645447839     -1.365673933121197     -1.295041495086140
H      -0.635621186539898      0.570644812264921     -1.741049954138934
O      -0.125077207981048     -2.286978677510783     -0.509113116737922
C       1.011454013627465     -1.630498637084506     -2.477453237388724
H       1.389827661357695     -0.718368720510048     -3.015064775430142
H       0.476559876597986     -2.232216066093800     -3.217713126652451
H       1.778129189193092     -2.224057817112977     -2.164165468664149
22

C      -0.371194031364053      1.756240295333711      0.752809228802923
C      -1.061511875410337      0.484699471813735      1.218063564904988
C       0.006292336951721     -0.353286728559167      1.922417734930006
H      -2.021191309646060      0.678336040368996      1.770499395547289
C       1.129116809002748     -0.159379645690787      1.138607182957402
H      -0.240597531659756     -1.092192135773235      2.695345190174506
C       0.733956969971736      0.864237612442156      0.021739763734355
H       1.911619188679487     -0.957054606173134      0.926861461410243
H       1.554970769588091      1.522925232206423     -0.254710575060491
H      -0.005183916472037      2.288066341053412      1.651586652264738
H      -0.956848997696576      2.425142530876432      0.056336741491135
C      -0.315644652542647     -0.060509658191233     -0.949069713025608
C      -1.585767823689387     -0.150393881372482     -0.010631958464423
H      -2.421742169025242      0.527583689633250     -0.335628244275017
H      -1.976676168982042     -1.181730960028549      0.153292035374800
C       0.213661737155396     -1.525990220710092     -1.254326883507527
H      -0.676767020383471      0.517864031581965     -1.837495043433468
O      -0.020144131546339     -2.542353457093082     -0.569603034496822
C       1.028821002324992     -1.703917356353673     -2.516434361319832
H       1.277121515678680     -0.723788806823272     -2.914812445047473
H       0.307197983147081     -2.209279860693254     -3.141002469788583
H       2.034613808164879     -2.338321636161640     -2.460906168766236
22

C      -0.331857128683667      1.590538554604637      0.545934468188129
C      -1.126066977248319      0.425346548572548      1.107405813941841
C      -0.047251438715144     -0.431356853726873      1.878396546412933
H      -1.915160421074441      0.809866882230515      1.746796167844318
C       1.005804504487388     -0.259966160521069      1.068543202717390
H      -0.278462955732658     -1.186323731908499      2.592100770315922
C       0.628027060439761      0.644936482110893     -0.183769916081844
H       2.079362719231848     -0.381653811893125      1.345509975204795
H       1.432486368253499      1.047737107462423     -0.807189872722714
H       0.227066125483117      2.265038363078950      1.304795798931653
H      -0.915089305710169      2.205559693647009     -0.213427008290071
C      -0.447055050527988     -0.206019356201678     -1.053366197598618
C      -1.667131882478101     -0.309287307356957     -0.004791938421660
H      -2.549862432192874      0.363532228866467     -0.303537117349145
H      -2.207577181506823     -1.281760516055012      0.095884637436934
C       0.311289645068582     -1.546656084890395     -1.304135094829204
H      -0.670499785074315      0.254075704580781     -2.096416124943301
O       0.182902070058936     -2.452299833997218     -0.502313777836862
C       1.096573759733136     -1.734012108562113     -2.575258178934565
H       1.461316351120681     -0.781058169770764     -3.080563043947238
H       0.230056966556920     -1.918134792798322     -3.258827506563907
H       1.911942397446996     -2.562528064515278     -2.720456888386183
22

C      -0.431030012752171      1.544351512927016      0.410244426194244
C      -1.266298879293430      0.368921960143339      1.082749016891928
C      -0.095747982279037     -0.301524842613200      1.731109422594908
H      -2.070558924329513      0.743195475345011      1.729369190749191
C       0.952573867320184     -0.344084458393140      0.910895679767102
H      -0.314380704085503     -1.146946424630412      2.432530046190096
C       0.527283446655457      0.625229391782939     -0.234066155387615
H       1.880418311790098     -0.830419412319329      0.932616032209193
H       1.335383907824876      1.029642448274382     -0.933559934899505
H      -0.090599591475292      2.084780376202656      1.322303616296475
H      -1.011491904933823      2.206247352629739     -0.272943053327154
C      -0.378443207651094     -0.368751021688993     -1.042298243576476
C      -1.634269958232950     -0.435514393408409     -0.109865263397634
H      -2.365089707699563      0.177187729089239     -0.632528505591386
H      -2.033847076701499     -1.378353563347435      0.300034980721103
C       0.304615960918595     -1.716982255971514     -1.375649995343081
H      -0.642738835119477      0.176428094624238     -1.969231716814713
O       0.466570022765376     -2.528080873389462     -0.518294101366567
C       1.045317189590873     -1.847056706015879     -2.652625354213921
H       1.534361314881019     -0.781494018326474     -2.825535435657760
H       0.192292103064567     -1.974714531325292     -3.458656963253721
H       1.669493137189162     -2.688797427962832     -2.725075309312129
22

C      -0.583122156516854      1.438341629939105      0.298032301914668
C      -1.315907443625160      0.254473339860855      1.002663104849386
C      -0.057823557250236     -0.384214155805371      1.585190162349847
H      -2.126537578547671      0.370232379736942      1.737696636111929
C       1.030881768035368     -0.186516044337512      0.824493310952395
H      -0.136253198561250     -1.171156894885765      2.425860227252170
C       0.476554149311572      0.520272781269087     -0.310216285345003
H       1.949114361067644     -0.765973201493575      0.826199877752886
H       1.061064819636056      1.120050259099515     -1.000854051119941
H      -0.216280235121922      2.072191825588622      1.040836687768562
H      -1.104845172212845      1.993467228463839     -0.450972966403532
C      -0.370960409500035     -0.487834251546423     -1.063249766585681
C      -1.674723168404226     -0.575722252516790     -0.236606983993689
H      -2.449392015909132     -0.092512103133877     -0.798403777822830
H      -2.076648860180092     -1.530627093373788      0.060081687583613
C       0.361794433754529     -1.798179059673056     -1.393208189413787
H      -0.601357036119740      0.010668648074203     -1.960717061881780
O       0.576651687936644     -2.532593464500856     -0.511691064916390
C       0.957465836449677     -1.923668290967315     -2.684514324945817
H       1.876369489193240     -1.242545154131185     -2.791402395254769
H       0.213030254133731     -1.604124954561586     -3.513539578346623
H       1.424997367316821     -2.966826180058825     -2.814008690112124
22

C      -0.724564421680611      1.295635144297167      0.306229621896659
C      -1.264600769603272      0.127957257941854      0.981744824034310
C      -0.007628397873851     -0.495394036786512      1.621048524662957
H      -2.139909031792109      0.133570493253483      1.665138188769762
C       0.944443268538530     -0.129462980362063      0.715892641835261
H       0.111393605424847     -1.118506567192370      2.503090002012740
C       0.318391486950173      0.499723376728272     -0.495910896901289
H       2.060620128038379     -0.318937188997906      0.766570545524427
H       1.038265304560525      1.057913185458836     -1.059738891105308
H      -0.005093192464589      1.981400973770175      0.754332405001951
H      -1.281649781329176      1.787820222572855     -0.469800354484396
C      -0.383908748463851     -0.521356361340502     -1.279619209096560
C      -1.623471289175925     -0.784977227394671     -0.313892953028284
H      -2.641184699461200     -0.528237524386951     -0.717092126877273
H      -1.614229081787200     -1.828111034303666     -0.078380187820234
C       0.473620778523527     -1.741871069126550     -1.433526526677771
H      -0.761691246349287     -0.081117055284982     -2.244187109595109
O       0.549556023292550     -2.461468068432593     -0.486997503717200
C       1.054675575819138     -2.099479797051286     -2.755383812147925
H       2.032151128922035     -1.686355585132944     -3.020492391066372
H       0.330711116830936     -1.584963571045981     -3.415233152741181
H       0.721590417863383     -3.199154545104240     -2.955852304782998
22

C      -0.830809239976987      1.312734091268000      0.198092091232711
C      -1.306229610899588     -0.005185883524404      0.972011604872048
C      -0.049005097459322     -0.593709259626109      1.488462427300413
H      -2.166946181880348      0.072629586584359      1.635034100039070
C       0.937668478565406     -0.137950457820986      0.657079713300958
H       0.051612230806213     -1.276187120735835      2.293894502498183
C       0.289903000952516      0.580500755969150     -0.430910186097952
H       1.941359949655704     -0.459906167762921      0.467826455507541
H       1.002580245432166      1.248544826689536     -1.023487575694941
H      -0.431324690848242      2.236545669547497      0.782401312198345
H      -1.673761380428894      1.773852020826307     -0.434336658468050
C      -0.451782184938376     -0.556042032432482     -1.359522664369266
C      -1.665702587442521     -0.834694141080429     -0.405831279372724
H      -2.714871490648353     -0.717177184279556     -0.806986402646410
H      -1.575965658872136     -1.856848609915699      0.064689678864313
C       0.417696238750809     -1.830302637313140     -1.504451184061179
H      -0.643635421774604     -0.164889299298212     -2.407512857592215
O       0.778810152451024     -2.558469608950507     -0.608791440864669
C       1.085527491622932     -2.277845716638612     -2.761801463289841
H       2.116577187120447     -1.973930089028444     -2.729961411518103
H       0.550932207351075     -1.838160106917893     -3.594769472485084
H       1.255239415911871     -3.304559504310250     -2.858400951978251
22

C      -0.876584911302029      1.239629938406112      0.058988933677299
C      -1.422797577799924     -0.122952904758424      0.784894032559469
C      -0.064682303585847     -0.589603209813983      1.394222259357287
H      -2.201911820400012     -0.213411082854144      1.567920964870275
C       0.909901415889380     -0.187506626007904      0.594941331874129
H      -0.058393896284548     -1.162046678984100      2.349162101904280
C       0.297614548365986      0.510459140346216     -0.488247063864908
H       1.878334113425973     -0.553885419434630      0.372408832616654
H       1.008077258821535      1.083246583193318     -1.064427702609826
H      -0.639808353357347      1.935248868653715      0.872113508559712
H      -1.762302888705257      1.457353170664487     -0.610837298991503
C      -0.380404621026013     -0.739862411538884     -1.373405205109149
C      -1.707330550769772     -0.950258045731989     -0.504071455158829
H      -2.614063365521409     -0.659156177755285     -1.024808124538696
H      -1.729727604502775     -2.112832334865409     -0.246608634304065
C       0.559620340985479     -1.902554094009288     -1.477839920585677
H      -0.502503088727128     -0.264793181528430     -2.318961818580979
O       0.861092300808818     -2.522463477701750     -0.448569586128334
C       1.020396862583063     -2.219424483571554     -2.878070565536187
H       1.888143634500585     -1.636776670174150     -3.114272456724684
H       0.367902996787547     -1.774187852864964     -3.615432724903619
H       1.140619578319289     -3.290647386247428     -3.061696927581810
22

C      -0.908473150313350      1.113057868087347      0.116598942091215
C      -1.440422914062060     -0.198884980024799      0.724642806067354
C      -0.222476986432573     -0.698141116812399      1.390020530215176
H      -2.370878248817907     -0.250185290103454      1.305590714235735
C       0.796199116227195     -0.219788115445855      0.584038421534076
H      -0.060211893286523     -1.429723173011141      2.176220458813058
C       0.278265152769201      0.428516414326135     -0.582516128925795
H       1.894446540513126     -0.333039926768806      0.662374157032256
H       1.156168518244652      0.907923507929817     -1.101566018221170
H      -0.558675113873306      1.850048006485286      0.854203160663255
H      -1.650739204522472      1.611415487746803     -0.580099015938772
C      -0.387065787122237     -0.725118882232458     -1.443650215315810
C      -1.662414241848579     -1.081122908167528     -0.533497114451750
H      -2.597281777145127     -0.768019308076298     -1.019316372404394
H      -1.769505329067933     -2.191637245748931     -0.337779883600491
C       0.610290509814515     -1.838340602556884     -1.623827966863682
H      -0.707341264729708     -0.449884113626827     -2.470619720226973
O       1.035199456833384     -2.406625040709033     -0.637901757399486
C       0.965003921880918     -2.397446834598156     -2.856713605696644
H       1.540978297798865     -1.647320398891118     -2.776601235277097
H       0.466599720645742     -2.447232989136952     -3.872564957201345
H       1.664786528531702     -3.302837173954646     -2.821010667275020
22

C      -1.011559010745216      1.038834636804343      0.063425314374947
C      -1.506906235519638     -0.349011796833682      0.652012020354204
C      -0.286987422491617     -0.840199683471085      1.313574645766640
H      -2.431821278769031     -0.186515237266505      1.216323599187062
C       0.719011617346996     -0.494595987985571      0.423140027337174
H      -0.282752748300472     -1.629686717106258      2.036482422285644
C       0.318535858808179      0.322129990375866     -0.622790403919245
H       1.713718585442750     -1.059423729154417      0.424454941354872
H       1.056565759167923      1.040660698320778     -1.136735867503744
H      -0.771020225584370      1.847519396511756      0.813449944538585
H      -1.525499500475550      1.579798567775137     -0.740734911879694
C      -0.386399789403199     -0.783155672489815     -1.441054146874411
C      -1.677810794123984     -1.119957240399310     -0.681765022359568
H      -2.537113566031832     -0.556844553685982     -1.128119696053917
H      -2.029743779983293     -2.076230332644863     -0.454983860172779
C       0.709405297366955     -1.842704152279972     -1.565613455204529
H      -0.647177098251745     -0.497534622310869     -2.505208984092007
O       1.307928761815840     -2.206911857884071     -0.662705574823592
C       0.866379066378329     -2.385549793688392     -2.859567590566271
H       1.172813430656672     -1.568503353264404     -2.360193503404264
H       0.324147651736719     -2.019924595630396     -3.726599358164073
H       1.393116984422225     -3.268058180688749     -2.807978420418692
