22

C      -0.054358877019910      1.818292036192819      0.978000695886790
C      -0.885130400871850      0.756600608199369      1.646415371213540
C      -0.008396110223220     -0.265458063823011      2.008732505439470
H      -1.784426625062059      0.987833627452589      2.204802340157830
C       1.193718366157370     -0.113870754970751      1.298685222592910
H      -0.262245946600830     -1.114433596881321      2.628290239716101
C       1.120422421893490      1.020418721708359      0.528661857645340
H       1.993221352956530     -0.841390399401481      1.280148592263270
H       1.895057938714940      1.397305068361709     -0.125190678932640
H       0.287890694966570      2.516734345025499      1.757598249308760
H      -0.555458155466170      2.403955993682249      0.209272238163790
C      -0.700163294135400     -0.034993348405441     -1.014957068363840
C      -1.714487045356380      0.033886352619679     -0.075679580887860
H      -2.449619693011539      0.827769164010049     -0.151553653547790
H      -2.075477670016270     -0.904102434507051      0.329249252262580
C       0.037995126778830     -1.276911931387211     -1.164452438837120
H      -0.512837261450720      0.773727152348119     -1.710901131945380
O      -0.108000216134870     -2.202618371901111     -0.379100983467770
C       0.980229405324210     -1.405757663678131     -2.335145058936740
H       1.363078896085740     -0.442711049025371     -2.678088653987070
H       0.434233439777440     -1.866991205201431     -3.164376608054930
H       1.804753652694100     -2.067284250418121     -2.070410707689250
22

C      -0.024302081657668      1.895570350528230      1.090485648381319
C      -0.773777581961501      0.900690201228556      1.994828432211275
C      -0.005342871217085     -0.168979213629712      2.199474302628016
H      -1.724788718953689      1.091750686399845      2.495609157051566
C       1.143124544637420     -0.164755634806230      1.348075901022859
H      -0.294421100356340     -1.076311156430405      2.793073290014536
C       1.166773599938782      1.000287726228098      0.600663432486021
H       1.800828849017353     -0.992073124099346      1.343340027115379
H       1.918875266113678      1.322491039091354     -0.104709194992512
H       0.545815197535806      2.614877644203276      1.689501194822017
H      -0.513763312408550      2.494489434373050      0.338847004717147
C      -0.669797587342762     -0.119092809588338     -1.098010242796363
C      -1.710888703106675     -0.101202526814575     -0.254993357880544
H      -2.347968349316683      0.753594972866683     -0.198289825617927
H      -2.008337940586571     -0.900154765067850      0.415431145973284
C       0.015812462639830     -1.447242396007928     -1.213846861302389
H      -0.458652801326632      0.663016949862940     -1.823156433750512
O      -0.038815107583157     -2.381249120913953     -0.428852510890962
C       0.990878753965699     -1.516072316259023     -2.460721427744901
H       1.394217626491917     -0.504064414331663     -2.666327400785300
H       0.389236635547960     -1.837598048375417     -3.298584481101445
H       1.781960620599607     -2.254375243388908     -2.306403324687170
22

C       0.108500672654724      1.902346547561350      1.239857493005640
C      -0.572546438102007      1.084239275744035      2.239986175278369
C      -0.001567660275626     -0.104846804861917      2.373860374850383
H      -1.411111435318266      1.602532124526656      2.721941153928054
C       1.119186085250888     -0.194862611700964      1.432738093042926
H      -0.202503070617316     -0.827619352373699      3.249957385714229
C       1.168884699061500      0.994719560289132      0.739921185277022
H       1.784866128861856     -0.985595000708948      1.239797090729790
H       1.866603192110029      1.229826148404126     -0.039687548486855
H       0.462789024994839      2.853980837511513      1.645905192368106
H      -0.490857698364214      2.085972392300500      0.372832329180954
C      -0.743872428219027     -0.348771798834058     -1.202079103297542
C      -1.835578835697032     -0.228196940130993     -0.416049331168346
H      -2.543119407692396      0.596333391804000     -0.374650389257592
H      -2.314404667184041     -1.071618580149806      0.055150794113837
C       0.120710568169750     -1.503074438552896     -1.261112256496375
H      -0.270623375685470      0.471935122449313     -1.741867491455565
O      -0.003121537046462     -2.446672548553112     -0.528229477355874
C       1.010362731775488     -1.684815910902960     -2.545865519929488
H       1.679432349508421     -0.800604154859606     -2.542831206062377
H       0.278746557014953     -1.650341990014062     -3.329244695380762
H       1.443355578079988     -2.664527577061201     -2.491747122053770
22

C       0.198329340104005      1.922492654641195      1.301600422863013
C      -0.389128009908636      1.235820475048952      2.558603867849348
C       0.075552084135310      0.004294172736724      2.538880658176239
H      -1.246380472436898      1.653723237831749      3.142301054511706
C       1.100743841076169     -0.214129052186286      1.562234078407210
H      -0.354782270997317     -0.887065151225074      3.173856054328311
C       1.253822047243537      0.948235191676125      0.843409586186029
H       1.604844168996452     -1.116627261389741      1.336788695143042
H       2.029358900548190      1.078817680428790      0.095304328973592
H       0.525198395261491      2.953964129832815      1.479092082366446
H      -0.539165357804328      1.954297438297701      0.492166007264444
C      -0.760213454177093     -0.372818388386500     -1.307649289592057
C      -1.928290087950871     -0.413928915100911     -0.654947631940453
H      -2.738969718112768      0.324762739125805     -0.508268203406223
H      -2.096546798612234     -1.225131556152043      0.042968882361155
C       0.051575012095425     -1.681316806185936     -1.392283820748040
H      -0.556926529880782      0.518924256817750     -1.893990835235325
O       0.041845619654937     -2.510955045621740     -0.519283952768851
C       0.984782035196377     -1.812037051258574     -2.617474647621269
H       1.820831772312729     -1.171367286631913     -2.189785777543615
H       0.500930316718437     -1.424032527908449     -3.509282883266846
H       1.189515428491205     -2.866982184508683     -2.686717963859729
22

C       0.342739447838043      1.947840844890374      1.403814169601553
C      -0.269751088331047      1.327550594012594      2.650036632763777
C       0.088563341212966      0.055447807292346      2.756784164091642
H      -0.865564193676440      1.883826174116588      3.407522275090798
C       1.062651155488574     -0.259366714189342      1.710025746175075
H      -0.155028837146920     -0.648815075585458      3.641806654303009
C       1.286456481905789      0.898552159365098      0.982215828532004
H       1.666357471355298     -1.149349404525132      1.687647916857620
H       1.919754714228867      1.046152922517473      0.092167268568995
H       0.701210415705628      2.994019808315067      1.379237364752286
H      -0.629910037076098      1.997446484464007      0.742702806479080
C      -0.790985646043807     -0.567542271453954     -1.491592287101338
C      -1.916600527679399     -0.561095896618225     -0.792452021593365
H      -2.658946969228741      0.280318023180282     -0.919314969204471
H      -2.228737914362899     -1.288792855110460     -0.050561417703026
C       0.052733979484723     -1.761198346810839     -1.480186037132257
H      -0.687071186522117      0.371563347525900     -2.049255313247446
O       0.008836084465987     -2.536388455306509     -0.545218615829848
C       0.986442385074782     -1.873307200200809     -2.636514710490439
H       2.065503543960265     -1.606994410556104     -2.380312629166348
H       0.589316788645363     -1.280326337078467     -3.478872644434902
H       0.896180841454291     -2.936544831394541     -2.910576872303384
22

C       0.430104037135351      1.894799510858118      1.507450643736558
C      -0.185852654953550      1.445856686544567      2.785057972818015
C       0.208992842378220      0.195991674070729      3.008496733576086
H      -0.934718477275858      2.054259484532589      3.303379802573361
C       1.081173492749617     -0.274871483111739      1.897968139892271
H      -0.169333920908644     -0.573722610246459      3.739115631948919
C       1.252096863123028      0.786265595439147      1.047507274088013
H       1.463819302731885     -1.301020328667561      1.707218053692616
H       1.853507127068397      0.799037278479577      0.109805616999492
H       1.019730827603843      2.813593927787476      1.665213475313680
H      -0.427321818499427      2.254793420924903      0.755704850533395
C      -0.896492525868412     -0.680136469448632     -1.661473412219370
C      -1.985683010572415     -0.590548650263118     -0.888250962137565
H      -2.878355414939379      0.109939023267462     -0.972039536035483
H      -2.107728658362295     -1.458500163034505     -0.217189872316951
C       0.079040749292832     -1.777095696876754     -1.497810837563421
H      -0.663839963322532     -0.013079370261902     -2.497333745315172
O      -0.008977330946745     -2.627426226885748     -0.623686977697932
C       1.051640098211001     -2.008883762051222     -2.698693347217274
H       2.142023690782362     -2.093309632501378     -2.311898169622851
H       1.179671045327119     -1.195640476696568     -3.438386935714062
H       1.003469952495394     -2.889427650881356     -3.338422642069359
22

C       0.571358560021788      1.952483822205949      1.588905817463107
C      -0.102442627944028      1.521300933493077      2.880170951714832
C       0.235561214141415      0.250301916138248      3.175214093941231
H      -0.656677382392541      2.097380181140111      3.581621584640738
C       1.047953103026458     -0.291474444034782      2.126840179219005
H       0.085063267304284     -0.292857751663551      4.109041985156368
C       1.167939703200169      0.634702262367363      1.123876059991046
H       1.529376415259053     -1.308931112273806      2.146213658027367
H       1.765769944397221      0.357915729187899      0.240368076065925
H       1.256341037025021      2.745572043053427      1.887445907768388
H      -0.086313868139473      2.407970883148518      0.700348736430183
C      -0.969657563488464     -0.763689759477843     -1.830235397002118
C      -2.014840853713391     -0.721825247026746     -0.978290214829393
H      -2.684330594099237      0.173231425240940     -1.078932962633047
H      -2.067234308922957     -1.296449173883894     -0.021369951826845
C       0.039853344217925     -1.907945770970268     -1.718332654046803
H      -0.782852005849654     -0.109089469121292     -2.679309779245989
O       0.036287261378980     -2.606567069474287     -0.736042130820812
C       1.111495653432461     -2.100718022292531     -2.622019274936606
H       2.074718107355413     -2.487715769797648     -2.174467559912447
H       1.500412236506508     -1.270857709057612     -3.190174933458961
H       0.933036817884931     -2.830885919639260     -3.410534949371270
22

C       0.680188337035252      1.831894289328211      1.710399812452388
C       0.056102760814298      1.640548275592810      2.994308907487847
C       0.241493499646726      0.351812439368272      3.399092663481614
H      -0.466197994167991      2.415878811798728      3.476259351075853
C       0.981533808381575     -0.365870001063795      2.260274528795180
H      -0.140497207823167     -0.100780904824862      4.284552879262685
C       1.183996774833072      0.532914068157529      1.249433120391407
H       1.229646404842327     -1.456624763839471      2.368703358869725
H       1.705470652122797      0.402393598022310      0.332395041919473
H       1.596453158715862      2.414403023669261      1.711858174548299
H       0.062892084889347      2.389712718814094      0.853601332775691
C      -1.058103251179352     -0.905453444981322     -2.077005446754761
C      -1.965312664612465     -0.723937020254230     -1.079397542160572
H      -2.751218708495464      0.020311526580534     -1.219007642235591
H      -1.887215930973227     -1.406975228363671     -0.162771400004587
C       0.103306819516833     -1.994138924416113     -1.735678845495342
H      -1.043914416824328     -0.401239830747813     -3.049284929470031
O      -0.070994745527751     -2.635128427993903     -0.731243259742625
C       1.219309042016087     -2.099585622666990     -2.708781945652472
H       2.062054892155221     -2.844913402307650     -2.428487702081765
H       1.796766284466491     -1.279986226139464     -3.116901642468917
H       0.784799254563629     -2.638290923060770     -3.567357429217667
22

C       0.857366959465441      1.839522404819004      1.736711953837628
C       0.236700905636283      1.730578659420027      3.096945325501836
C       0.247178132391969      0.404408646104375      3.511822699454975
H      -0.034383484368504      2.564269127896876      3.710010920558009
C       0.795673940898753     -0.415968971827354      2.449483336361417
H      -0.017961825821723      0.015937747901606      4.434016647334313
C       1.235039942572666      0.381991142398387      1.455409396634501
H       0.804927721077198     -1.526964279248976      2.572419421451785
H       1.652945956689441     -0.066852821765436      0.588726773220364
H       1.694359954128546      2.527850855996113      1.611651073379998
H       0.019915270809073      2.213029664044139      0.947153308035712
C      -1.018013819815060     -1.078175035535874     -2.203158591053120
C      -1.874177986622531     -0.751463835640847     -1.237582519009149
H      -2.703232656079765     -0.145123199154066     -1.513365801694310
H      -1.694181854992372     -1.333373507661093     -0.271024096176198
C       0.025816486217806     -2.035507838764017     -1.811873568865964
H      -0.929413170934872     -0.647576643383355     -3.211374257586887
O      -0.108156102081218     -2.666433656179118     -0.815574508983524
C       1.153729910230390     -2.117652265307563     -2.732508228491700
H       1.807234376570388     -2.938357637707954     -2.227830656087249
H       1.791952324120317     -1.249008739252934     -2.463039645795117
H       1.088009389254735     -2.266176193570481     -3.830314625239612
22

C       1.033988540801944      1.736645309531581      1.834014828449295
C       0.497012244762756      1.826224904246007      3.222864831793964
C       0.216149795193821      0.545625345999255      3.638077935541740
H       0.193745805198928      2.744129461337995      3.758977312509135
C       0.676921897063151     -0.378067261539372      2.628344630112276
H      -0.274265940218379      0.307601202995901      4.530772136141449
C       1.178111669055139      0.245854054354548      1.575250048702141
H       0.648921571203893     -1.470261604207992      2.760067823495956
H       1.599656382977059     -0.270061402180636      0.738591542478380
H       1.891305812794547      2.392523813159142      1.720319667844554
H       0.116880131134689      2.124806476851908      1.131680149741764
C      -1.064879027382573     -1.105820293515700     -2.313499687835735
C      -1.995096487915121     -0.748321053739412     -1.422471087018119
H      -2.665119981389169      0.034106860867731     -1.688447933132204
H      -1.770353507981864     -1.126629641201425     -0.396825242808533
C      -0.007529000723997     -2.162615684783381     -1.894707892985968
H      -1.089942814652055     -0.606604484191851     -3.303741671378476
O      -0.100336552318023     -2.753998358100642     -0.882612061101816
C       1.316447368319261     -2.279329000120094     -2.733894394344170
H       2.011842849419960     -3.211062615541664     -2.622313739707311
H       1.879411450424622     -1.433457372344061     -2.301493566708585
H       0.909577289143069     -2.017722753324741     -3.716443313848799
22

C       1.208119611843356      1.614399419436367      1.864218562963722
C       0.674851407006326      1.874256155082106      3.265019325699400
C       0.206511037859947      0.672527908348617      3.777501146706169
H       0.610727894610474      2.871570665193365      3.809004270859752
C       0.558695697579830     -0.383158247761925      2.813501250371281
H      -0.288347373096760      0.571999693675148      4.752621395273438
C       1.113203541300761      0.179864634360771      1.755409815915943
H       0.371599634331308     -1.423801493809783      2.916469176001298
H       1.403728510234884     -0.172986067717461      0.760186976806557
H       2.225052801832555      2.006825889391258      1.785708315338392
H       0.471983928646719      2.083964539554359      1.053703298191220
C      -0.989628468109480     -1.223904261604603     -2.329716333261783
C      -1.993936031046240     -0.741746565710847     -1.620866524141735
H      -2.635373149829368      0.008548272390195     -2.049109920969621
H      -2.207167782195263     -1.262950227738157     -0.685921029374814
C      -0.023944230311976     -2.137586762729133     -1.904469496995529
H      -0.858400851774567     -0.876981284927443     -3.381057907768938
O      -0.123145654344010     -2.851386981142941     -0.934565819796796
C       1.306017646309142     -2.309057525156881     -2.794632149248972
H       1.366323419125034     -3.437981744685957     -2.550471434686168
H       2.198086807103788     -1.858964009759688     -2.324624600631174
H       0.995395334583620     -2.088374107134209     -3.819020470995075
