22

C      -0.054358877019910      1.818292036192819      0.978000695886790
C      -0.885130400871850      0.756600608199369      1.646415371213540
C      -0.008396110223220     -0.265458063823011      2.008732505439470
H      -1.784426625062059      0.987833627452589      2.204802340157830
C       1.193718366157370     -0.113870754970751      1.298685222592910
H      -0.262245946600830     -1.114433596881321      2.628290239716101
C       1.120422421893490      1.020418721708359      0.528661857645340
H       1.993221352956530     -0.841390399401481      1.280148592263270
H       1.895057938714940      1.397305068361709     -0.125190678932640
H       0.287890694966570      2.516734345025499      1.757598249308760
H      -0.555458155466170      2.403955993682249      0.209272238163790
C      -0.700163294135400     -0.034993348405441     -1.014957068363840
C      -1.714487045356380      0.033886352619679     -0.075679580887860
H      -2.449619693011539      0.827769164010049     -0.151553653547790
H      -2.075477670016270     -0.904102434507051      0.329249252262580
C       0.037995126778830     -1.276911931387211     -1.164452438837120
H      -0.512837261450720      0.773727152348119     -1.710901131945380
O      -0.108000216134870     -2.202618371901111     -0.379100983467770
C       0.980229405324210     -1.405757663678131     -2.335145058936740
H       1.363078896085740     -0.442711049025371     -2.678088653987070
H       0.434233439777440     -1.866991205201431     -3.164376608054930
H       1.804753652694100     -2.067284250418121     -2.070410707689250
22

C      -0.079977122068819      1.776886832088352      1.138084949892979
C      -0.936379603205511      0.578019225436733      1.621398126776314
C       0.172013797629491     -0.435655060825755      1.928829058613100
H      -1.671443679121442      0.846665369821386      2.436118707008262
C       1.228352389146600     -0.089030692038063      1.156686716775804
H      -0.042091418266170     -1.463727250534306      2.339844145692187
C       0.755474893600889      0.927616993667327      0.129356147871670
H       2.104827008429272     -0.680256067529496      0.965476937522010
H       1.578670368213363      1.526143317755149     -0.264772770835914
H       0.525114942898384      2.297190774143702      1.910545194606864
H      -0.708065984914175      2.628845531491929      0.780948266543363
C      -0.276811022713008      0.347233532673026     -0.723530967270083
C      -1.569115724819120      0.207896064162175      0.163925073437306
H      -2.464452255467303      0.797882273536389     -0.125865727745411
H      -1.868043717583556     -0.856401219307622      0.039403997450260
C       0.072742898578009     -1.157602319014484     -1.086252511823007
H      -0.443725946518839      0.948026104655782     -1.624456230150168
O      -0.238043642096354     -2.129053926939277     -0.411395570251030
C       1.012913626001675     -1.237724771832855     -2.279104978566378
H       2.039468906600278     -1.554255952040668     -1.858670869834853
H       1.211548640091612     -0.232126816021292     -2.859919221699233
H       0.824812634038202     -1.964923938410400     -3.054363659109335
22

C      -0.088874976088280      1.776601836153241      1.216317427858459
C      -0.803778768746666      0.546271908305196      1.818202243188754
C       0.352910573531590     -0.451093190449374      1.922805956694259
H      -1.473057066060438      0.731365978165917      2.709256982698059
C       1.331448454949238      0.052580874307604      1.114381986435589
H       0.463348115886838     -1.412249903299665      2.558353535642166
C       0.626919016871755      0.979201863480219      0.192878673735767
H       2.311944947684309     -0.312647287624465      0.865482576741437
H       1.334568932348615      1.705144022140046     -0.311093162552339
H       0.551520776675649      2.292787918276394      1.947265305937116
H      -0.749953922951366      2.578348170842300      0.725202800495862
C      -0.442692585522488      0.284064205414567     -0.594935554988402
C      -1.523970287399621      0.164406899236929      0.483641677672371
H      -2.403622039821945      0.814695662026578      0.206193451891307
H      -1.892791498175531     -0.887918813787081      0.414368881429442
C       0.026499491248112     -1.032798093465392     -1.284607003987926
H      -0.819963151998683      1.008631740184925     -1.355226040332584
O      -0.286552419620341     -2.114547764220849     -0.872470942714622
C       1.171855187144436     -1.035677538145011     -2.222284374597967
H       1.408610007309529     -1.998265300359942     -2.751893092067496
H       2.077655796575160     -0.812961097804909     -1.628950257580058
H       1.186248569488788     -0.254530280647516     -2.937773885639225
22

C      -0.233378555157218      1.851561252446392      1.220223545345662
C      -0.654345412485031      0.543627136925145      1.946951803908296
C       0.513106890885650     -0.231556476593038      2.124310480480999
H      -1.421841249594396      0.595284784262214      2.787244840941911
C       1.371733749391973     -0.002178329208340      1.120688554438563
H       0.701445142320236     -0.981797820681015      3.005773401216233
C       0.707024316450389      1.082589794832745      0.132681520295692
H       2.377260824893087     -0.399536554848401      1.141189028619552
H       1.263623399001321      1.747985964469401     -0.552488589447726
H       0.309611445501313      2.384618677394059      1.987077869169382
H      -1.115054616769237      2.284884960381278      0.817885055634002
C      -0.533438671096940      0.127922716978205     -0.604991874831937
C      -1.366929820636730     -0.167662905152320      0.696564182229433
H      -2.262582250033395      0.464909374573088      0.655617474505698
H      -1.670015152891705     -1.211380261863826      0.892689154963761
C       0.063995929970605     -0.961617712519196     -1.329108700852128
H      -1.102067278326373      0.848989187848105     -1.171746450938015
O      -0.357472369267455     -2.081895623589880     -1.207315264863532
C       1.187704474804899     -0.624674369104788     -2.225724475346613
H       0.807941564666736      0.061088090574248     -3.013061413660721
H       1.443077851050228     -1.538777378906411     -2.767120091786814
H       2.060082571723875     -0.085828420732599     -1.761180546172653
22

C      -0.266614325391180      1.791834704858672      1.345126925646998
C      -0.586582225906633      0.351605051526297      1.938973410599199
C       0.836558592240351     -0.123725307170143      2.189916933387183
H      -1.338277946352487      0.282099570671762      2.748270027842285
C       1.476622659008119      0.310387583308911      1.049451873467970
H       1.270982691167931     -0.624018005184863      3.091664614811062
C       0.523344474100844      1.231528486789889      0.249765975485863
H       2.452103272944012      0.118291905638330      0.575904390058426
H       0.938371588043579      1.889138741282407     -0.490488861204546
H       0.294622176920068      2.412368090692210      2.134267397877206
H      -1.220717017900663      2.277266719255133      1.072316373584716
C      -0.456905405283716      0.217136322113027     -0.445673869573160
C      -1.237117218944721     -0.290166861974025      0.804945319379187
H      -2.322467908618056     -0.147230722912133      0.747543233819474
H      -1.137094144683221     -1.401530422862570      0.978947113283980
C       0.070873095537571     -0.975524291189378     -1.330727094808355
H      -1.156825089243678      0.822989157422922     -1.081545080689241
O      -0.329792068471262     -2.126484678742822     -1.205294133587117
C       0.892666599806724     -0.475749646590446     -2.552786074767632
H       1.702648705746856      0.174390267647077     -2.192469964549085
H       0.371389999747073      0.140708921824428     -3.297799499242644
H       1.499029648734127     -1.325438533114950     -3.002492098684917
22

C      -0.286675915417269      1.768184133332255      1.452505782163611
C      -0.393195855585334      0.347215384906860      2.161046723634426
C       1.063615643048115     -0.147798999144214      1.950497796672063
H      -0.749215497353746      0.413751007453107      3.213345895548512
C       1.600704269317753      0.417248802102479      0.890714345902148
H       1.728450015466804     -0.855652173575846      2.424206108776191
C       0.467364011870796      1.204758297608766      0.261688265039227
H       2.560144018013929      0.624128445937389      0.448027126240976
H       0.860477476672841      1.832980198229097     -0.560748637916201
H       0.327732479781378      2.524605497966205      2.045895893666642
H      -1.191211992648305      2.356755068272181      1.320910814372385
C      -0.583671247968654      0.225346425186420     -0.380350938055271
C      -1.305503761801593     -0.459644020123345      0.886930871583583
H      -2.396817762700499     -0.334700866472531      0.732389416862967
H      -1.038007238931788     -1.523176297703038      0.927214604890313
C      -0.000328008248743     -0.774987203011688     -1.308823829131505
H      -1.222313764158748      0.886222451882541     -1.006876777824125
O      -0.042757155052995     -1.964448460909703     -1.051859705060795
C       0.553325800442810     -0.440913826130012     -2.682662785774753
H       1.535428294867609     -0.746712773276409     -2.987409205619210
H       0.580951563180646      0.643303884842123     -2.829372450366216
H      -0.063937214191462     -0.732841201301077     -3.518648419571972
22

C      -0.208355041375727      1.720260537272261      1.574964371082137
C      -0.284076037942763      0.241628351307932      2.086919298480875
C       1.074477850441823     -0.257114011712130      1.721411763292650
H      -0.539573767639822      0.143621328239331      3.154137186393779
C       1.668606724771834      0.419506450700915      0.694325301116240
H       1.636525865911657     -1.051757446773640      2.165110782703857
C       0.405584112653373      1.208439326552104      0.261371803896170
H       2.599104622506261      0.305682996806433      0.112376125854055
H       0.571186027823252      1.991720530441147     -0.529853768289387
H       0.391782628614387      2.463272164915699      2.156048942745677
H      -1.158299650435247      2.193852907926315      1.313030925391141
C      -0.722788381461514      0.184749994032821     -0.318719657090359
C      -1.257032270483613     -0.371702038301962      1.021734246748073
H      -2.317771048354555     -0.090780805792989      1.182182631252415
H      -1.055659132470436     -1.416266703390771      0.968381593381034
C       0.021319045993109     -0.729821628701867     -1.205762738175798
H      -1.457488994753659      0.674634670519500     -0.952996918934041
O       0.373562887149780     -1.842311163527395     -0.979506175937896
C       0.207719029162280     -0.124169528843692     -2.621799535154556
H       0.598695024575370     -0.893786210934164     -3.325603404887014
H       0.667893943243699      0.860492840165080     -2.972464384139658
H      -0.811146051813195     -0.006466322008906     -2.964478026369973
22

C      -0.122496180072038      1.559220050458000      1.743387920817531
C      -0.096164777600326      0.108512847813648      2.096164137116840
C       1.277637494915549     -0.249088096821900      1.793324610761418
H      -0.544741514670712     -0.035743036726766      3.110695675086606
C       1.619232166195881      0.357915467621133      0.653930954464804
H       1.696921830161055     -1.145530813044046      2.184431813716516
C       0.376018193237028      1.333824052830457      0.237616506055739
H       2.426615295634403      0.168011828542800     -0.038178327604764
H       0.564560204718774      2.098310932988242     -0.493200445577650
H       0.636594943502398      2.142859940091779      2.211684343526477
H      -1.143455428898918      1.966280579481187      1.748604328566102
C      -0.805415860765455      0.362096777723557     -0.255952914639266
C      -1.056737971815612     -0.484161221556474      1.055328807519631
H      -2.081363525297283     -0.487862320221649      1.494827083842899
H      -0.800902414877958     -1.510808915901892      0.824712213018763
C      -0.071017284122312     -0.516376365439758     -1.305430877342248
H      -1.688628050360512      0.936897321799796     -0.659527020509486
O       0.445743028113174     -1.549067770867029     -0.979422411389900
C      -0.117701409578674     -0.172724964646200     -2.767145990830027
H      -0.131522701407366     -1.120345683642589     -3.332173066726039
H       0.747462883501324      0.333316075590802     -3.127904016093298
H      -0.838415861295836      0.576858989558263     -3.098526886827889
22

C      -0.020217309099144      1.504529137871764      1.839621813373419
C       0.073687646461686      0.003335591201088      2.198730031248351
C       1.469892145017638     -0.292825224329203      1.724772130267930
H      -0.258353114621100     -0.247435956019109      3.208022309578557
C       1.634111742995027      0.576023017800459      0.666083713672473
H       2.200011384381114     -0.915592667740117      2.071196388699144
C       0.496580732278870      1.466023486631112      0.407850917440173
H       2.491658606696080      0.600913427441097      0.005967384442383
H       0.730172473421204      2.331044783495580     -0.176345334536116
H       0.762590028068021      2.105626592846068      2.268024633658846
H      -0.965228819637802      2.127978889662897      1.825646581718608
C      -0.679500206757085      0.322552302021864     -0.184053933137262
C      -0.987094057414746     -0.503578472150840      1.041077323638524
H      -2.046671628898684     -0.268525176979298      1.398788902750544
H      -1.007712569492206     -1.611768878886646      0.912283201428402
C      -0.200965763553066     -0.545496814683824     -1.408763948490121
H      -1.511622971441654      1.064472656119449     -0.419545024497136
O       0.473296970830736     -1.566679620820742     -1.215189454216927
C      -0.606201182836398     -0.071281456991945     -2.725902970747780
H      -1.346159719400537     -0.813436122468278     -3.181153396766540
H       0.208823478659980      0.026493381505793     -3.418294462030611
H      -1.084038815047518      1.008812009801601     -2.721423802094516
22

C       0.072604716929718      1.494356500639748      1.894286299106984
C       0.289143645786335      0.031500842476238      2.170322167095770
C       1.693748585246243     -0.269368238966857      1.642205634784058
H       0.153300658897302     -0.226526324884467      3.235108795044310
C       1.759261657501293      0.522297678261471      0.559685010580202
H       2.340047362234574     -0.996507276110001      1.881278939290988
C       0.467582538582332      1.324703578590293      0.369910918381505
H       2.661387183415642      0.522097129892606     -0.086393556777425
H       0.579839095270157      2.191027596637784     -0.324486852771083
H       0.628351933054616      2.264876080253566      2.462737052656226
H      -0.969840559979395      1.893297644469098      1.862112817330376
C      -0.654213223076118      0.295770046476639      0.014667862662135
C      -0.697786386687754     -0.679368081199539      1.160014968061226
H      -1.696162394459971     -0.935349912017709      1.585849523398844
H      -0.190693689464463     -1.622998484429683      0.887599372160044
C      -0.454323682109191     -0.449399088193660     -1.382888812473200
H      -1.633572088736924      0.790203302398659     -0.097559952620797
O       0.290350277184625     -1.436856066787692     -1.408760585373208
C      -0.962115938399461      0.263994015817719     -2.615329095158601
H      -2.016180230241525      0.572038811768775     -2.752452998822290
H      -0.620029990305427     -0.375872641864024     -3.382538014115485
H      -0.445573714982903      1.215592023668068     -2.632745755034958
22

C       0.178576618769771      1.353499713520507      2.006151948316461
C       0.592801523884455     -0.092612827067060      2.178461286053276
C       1.883556074885698     -0.205636015161539      1.353285718071984
H       0.700057031296389     -0.444602984061702      3.221965983440457
C       1.865541122426051      0.668958547424699      0.359372846518394
H       2.611631014565210     -0.961559589710145      1.663791825516000
C       0.413568423259134      1.251164813013287      0.446870325227294
H       2.570281905932096      0.822631601812210     -0.436247053224600
H       0.340724813252029      2.253984243590655     -0.033986406192879
H       0.965771525448000      2.095302099971454      2.250137793268723
H      -0.830209888893892      1.733737999706898      2.235989815270841
C      -0.638978925986287      0.176234361068039      0.097910349885083
C      -0.492632668036049     -0.682777811805133      1.314168731513569
H      -1.361274915461689     -0.660776641624574      1.973550701634084
H      -0.290348317987430     -1.756632050614967      1.124960332567435
C      -0.613492879081112     -0.380506346159116     -1.323959032133955
H      -1.644783317522209      0.608061311535502      0.124421657521397
O      -0.134046182326051     -1.416918126204776     -1.667035261070215
C      -1.059981597323905      0.563857948248648     -2.346817713423572
H      -1.161417530590240      1.549575111716022     -1.946965223163755
H      -1.991470588016166      0.179189318055353     -2.985691267738071
H      -0.210520443994796      0.739801152187441     -2.996410009121862
