22

C      -0.054358877019910      1.818292036192819      0.978000695886790
C      -0.885130400871850      0.756600608199369      1.646415371213540
C      -0.008396110223220     -0.265458063823011      2.008732505439470
H      -1.784426625062059      0.987833627452589      2.204802340157830
C       1.193718366157370     -0.113870754970751      1.298685222592910
H      -0.262245946600830     -1.114433596881321      2.628290239716101
C       1.120422421893490      1.020418721708359      0.528661857645340
H       1.993221352956530     -0.841390399401481      1.280148592263270
H       1.895057938714940      1.397305068361709     -0.125190678932640
H       0.287890694966570      2.516734345025499      1.757598249308760
H      -0.555458155466170      2.403955993682249      0.209272238163790
C      -0.700163294135400     -0.034993348405441     -1.014957068363840
C      -1.714487045356380      0.033886352619679     -0.075679580887860
H      -2.449619693011539      0.827769164010049     -0.151553653547790
H      -2.075477670016270     -0.904102434507051      0.329249252262580
C       0.037995126778830     -1.276911931387211     -1.164452438837120
H      -0.512837261450720      0.773727152348119     -1.710901131945380
O      -0.108000216134870     -2.202618371901111     -0.379100983467770
C       0.980229405324210     -1.405757663678131     -2.335145058936740
H       1.363078896085740     -0.442711049025371     -2.678088653987070
H       0.434233439777440     -1.866991205201431     -3.164376608054930
H       1.804753652694100     -2.067284250418121     -2.070410707689250
22

C      -0.011341054471084      1.858880034422315      1.010514769718203
C      -0.828907351874211      0.824356874953013      1.708289276148436
C       0.029313573489014     -0.223260328358107      2.022663562600540
H      -1.709333081013927      0.994018814997861      2.335042474351198
C       1.187592026239491     -0.113702316200824      1.210078374109635
H      -0.265529469625291     -1.020126438173603      2.715262893892595
C       1.082353438645018      1.053216827313554      0.453109775944284
H       1.991134710614841     -0.837396834038919      1.027400513223033
H       1.754189511788015      1.478787266304275     -0.217611418702758
H       0.378988818915661      2.596705706041313      1.725740578386644
H      -0.547124855978418      2.381148992168574      0.253688358655172
C      -0.696081268204348     -0.029805636323786     -0.983959142843388
C      -1.692117550136079      0.027234052644913     -0.012114146555135
H      -2.461339520854144      0.762579439491950     -0.092965792365024
H      -1.979362446690844     -0.948957842805333      0.405723376596592
C       0.059036405472984     -1.292691825080670     -1.182662676204519
H      -0.528643909949522      0.711794329068365     -1.779665743990766
O      -0.103699616780602     -2.222419150615936     -0.409275508791064
C       0.957005746679469     -1.493859175732806     -2.385343485273952
H       1.517386057726725     -0.562300540999558     -2.605116662689368
H       0.383393181781566     -1.805947708127041     -3.247891656056512
H       1.667967509240120     -2.266731029451084     -2.130575371450327
22

C      -0.028245625465390      1.913913156567030      1.015813783166523
C      -0.815097968695933      0.823232057203739      1.727175755720064
C       0.126240991152020     -0.215108916182260      2.020641564119277
H      -1.714086968430026      0.917538028056334      2.354558457925764
C       1.216670617157846     -0.109074279775256      1.178925093804483
H      -0.042813158538158     -1.144428658088305      2.602130225274120
C       1.078241832990833      1.034793669047052      0.334599011195992
H       2.053425806677293     -0.857841606333079      1.062672870290911
H       1.836384149742922      1.441850099790626     -0.225716815454778
H       0.452986918598717      2.433411468482511      1.840663335348136
H      -0.578808887458617      2.694655445571084      0.551907564018733
C      -0.651981688316441      0.016628500111024     -1.001270080115291
C      -1.643523901333443      0.038981112136851     -0.005911843056729
H      -2.334461370429469      0.836068815895284     -0.134844405045328
H      -1.954782630703154     -0.965105068099074      0.358615297721884
C       0.025263216897545     -1.325108181572030     -1.185575808082837
H      -0.485164711664463      0.780223967938957     -1.756475220636510
O      -0.135102448223646     -2.219078258419392     -0.359098854965394
C       0.909339086973349     -1.531579729462344     -2.403043443026869
H       1.703395525415867     -0.738032285264430     -2.506236418166547
H       0.253925533735981     -1.520743982273848     -3.273535818221150
H       1.462819343141388     -2.459652348349102     -2.297975754769159
22

C       0.004696284374838      1.840717934163238      0.974592654052045
C      -0.843573930390314      0.722534271378251      1.496828333913138
C       0.193196769262020     -0.260664519229641      1.948317402538671
H      -1.535968387089009      1.068546166449311      2.282706295159260
C       1.275335503200249     -0.064813079110208      1.213615467925536
H       0.191638605563985     -1.024433766703569      2.768176478636856
C       1.017142344732744      1.028748263686244      0.294953147873917
H       2.186899571220332     -0.698676052490243      1.061017508014342
H       1.734448647726395      1.441837896011017     -0.346473335970287
H       0.435067192023112      2.470118853787401      1.732291805689856
H      -0.500138108182998      2.497720959136937      0.313062195514946
C      -0.547771537765820      0.038384500478934     -0.897735349033372
C      -1.562524827282041      0.167936439116849      0.144711719663585
H      -2.289281862392200      0.845503647993490     -0.250137296917228
H      -2.032924805683199     -0.823517931807950      0.414408012127463
C       0.012432258475750     -1.313512169220304     -1.154802543675791
H      -0.554404216420785      0.673720651459235     -1.765896044058089
O      -0.159941076746911     -2.199636002943952     -0.346042526125141
C       0.814402938962052     -1.524710055796682     -2.392598261479673
H       1.827369667505053     -1.047654208334578     -2.346193540557932
H       0.254654774076962     -1.152958090956001     -3.241080209687575
H       1.025442523452268     -2.586092641963318     -2.482898849998028
22

C       0.015201366815312      1.830910949688655      0.946747596848839
C      -0.825638798178006      0.691509112079388      1.553120927329867
C       0.197952439513982     -0.267404481225961      1.923459627334783
H      -1.582293000400392      0.926407042555900      2.326683445726816
C       1.320429405527625     -0.075002552657722      1.216117920882712
H      -0.136631054771227     -1.152965798880238      2.541496094654491
C       0.811178736282639      0.840044015341896      0.034410624341231
H       2.382663609382508     -0.396213245587875      1.339518015306832
H       1.530026225845722      1.171616626400992     -0.719133631061430
H       0.643810552092486      2.450304336892615      1.549586591030295
H      -0.586880824093618      2.484910842635280      0.345423867669748
C      -0.211783268214163      0.242771455442811     -0.667953597379575
C      -1.536600768955140      0.183546554309064      0.184204603620020
H      -2.313281888914556      0.879248923270902     -0.067138737788731
H      -1.984948658435172     -0.832371743990350      0.329043495017418
C       0.073220670076518     -1.272497324443412     -1.099385195926806
H      -0.416057221187706      0.802638339078594     -1.580874583802695
O      -0.235703040201818     -2.198103479701350     -0.414061925854111
C       0.746822139081748     -1.499285203437893     -2.425003429952473
H       1.840333706679640     -1.479144018111252     -2.156399777664768
H       0.539923638631887     -0.785271054020157     -3.216314943526654
H       0.680127361414329     -2.533087483622591     -2.760205638459612
22

C       0.068673579071181      1.882672096884016      0.989807039611627
C      -0.838370259757490      0.732830263542768      1.544788710559952
C       0.273762577194872     -0.243405623979752      2.031086674384298
H      -1.688606424142121      1.104661874293856      2.152771866815515
C       1.247863891184217     -0.161132499563632      1.131899234515636
H       0.187158758494498     -0.936390712806280      2.902002081429215
C       0.916465620968683      0.947802081001440      0.124788280383840
H       2.069523920977857     -0.883794573343104      0.924473436435315
H       1.870792105120823      1.357737785970481     -0.307593136137269
H       0.509935215447336      2.441226239683824      1.818096400925338
H      -0.353087644414321      2.669025744581063      0.377655041449536
C      -0.327966475952992      0.140218456537124     -0.787557868083088
C      -1.450096827648876      0.171589048156461      0.259210997342508
H      -2.227304314859566      0.880055528213401      0.124089035470071
H      -1.957937499719359     -0.740198860310204      0.608918557679501
C       0.033540734109101     -1.292001380641331     -1.201071697207616
H      -0.656848160965300      0.651065409995059     -1.709557766379276
O      -0.275055695548956     -2.190453471453846     -0.452125011286824
C       0.820654212253175     -1.491805647504438     -2.478649165699459
H       1.866873022958879     -1.856012494852463     -2.414142215079870
H       0.735962831765468     -0.678994675315720     -3.196789544797614
H       0.323195080737988     -2.361489437627825     -2.930281927450272
22

C       0.104148340672221      1.829534779330729      0.954302052833266
C      -0.797782929345070      0.830451252595064      1.698570999491362
C       0.297826921656792     -0.176543101749264      2.026143738998190
H      -1.446944089508617      1.158449792106820      2.535155211315749
C       1.222942516163085     -0.199099843231083      1.088625136986343
H       0.194321215673306     -1.021937630952560      2.769559633292044
C       0.820100286259269      0.801472175429063      0.061490579452364
H       2.044669811190562     -0.942181210271394      1.074718617558205
H       1.744488553320915      1.205782092821055     -0.470282944774719
H       0.754034268079015      2.330245148908957      1.691375013680820
H      -0.407475060161621      2.671826654293730      0.518301215853055
C      -0.291679558416186      0.174452109666967     -0.695822170970147
C      -1.443078495604603      0.207941385734938      0.259177779648570
H      -2.303303237122064      0.752441907846031     -0.074487425920148
H      -1.697125021906436     -0.844977061967775      0.432815667591859
C       0.041814861126076     -1.201941641194914     -1.204727306673359
H      -0.474482638423441      0.791697416485219     -1.600281840097003
O      -0.208024524369104     -2.194220171216531     -0.572724111691878
C       0.744544504330597     -1.505957716931011     -2.493689917524830
H       1.729087318561501     -1.953511505780236     -2.200738677368338
H       1.021579649947945     -0.641564681136917     -3.059217239622683
H       0.273379686100210     -2.313158488917639     -3.078856345472782
22

C       0.197610548448449      1.869438516806112      0.872745824578500
C      -0.684941572171605      0.763312663930990      1.515059958781789
C       0.208623030027899     -0.280992364064680      2.055731771356152
H      -1.281766481584458      1.054308211546381      2.372266564571357
C       1.263886021338684     -0.226442813045143      1.211928599411368
H      -0.275729944652181     -0.902169819646565      2.848119681119566
C       0.882164286999769      0.818797462445871      0.045726148885395
H       2.134657306366126     -0.917653370772898      1.138106110203533
H       1.702050473003972      1.213168829075798     -0.678793772767727
H       0.766863185459047      2.392215100084008      1.678692665243050
H      -0.405819976644871      2.651099496847976      0.459527371332301
C      -0.376727227796696      0.225038347532578     -0.688085759366329
C      -1.477669453032348      0.165088608136563      0.379527951118769
H      -2.298180107861732      0.847361592495089      0.198309395570235
H      -1.870868872124201     -0.828706474289434      0.562507179862012
C       0.074167876870213     -1.208128217815697     -1.197681229556224
H      -0.631452370662212      0.931585556847835     -1.497382984057674
O      -0.210426858986999     -2.219082565663892     -0.535554112499603
C       0.783895673942694     -1.372299702056506     -2.592814244942447
H       1.698740972628019     -2.001486728862295     -2.516549800855773
H       1.054343614338765     -0.466030132801372     -3.096988639775764
H       0.029944605897140     -1.945857584888499     -3.191408196111454
22

C       0.229547027684216      1.783216579321062      0.926989562138833
C      -0.862318011696486      0.876550537230391      1.593004808310441
C       0.275959576845754     -0.255501502453951      2.030906752738399
H      -1.588626231227234      1.136299149248291      2.354420504237402
C       1.318320054341925     -0.245876980438871      1.124790118919218
H       0.222379500972191     -1.074384710216138      2.769503724111201
C       0.989090335948379      0.699504849683059      0.149511159915961
H       2.179036370187886     -0.923612691746577      1.106556797915579
H       1.777470440387798      1.145186034307515     -0.572926175117530
H       0.922621977071569      2.399271296590933      1.569096877527049
H      -0.107646322073907      2.476188120603977      0.195205366992924
C      -0.291106482705437      0.110440307008111     -0.754833869049654
C      -1.443581156648152      0.234845372664532      0.321711704458906
H      -2.189604092730334      0.751033117481278     -0.266884551573649
H      -1.844087778447663     -0.771371253250293      0.462958655943031
C      -0.040866270951099     -1.232398994861727     -1.272827282591384
H      -0.434326760963801      0.842737273789974     -1.580692368807830
O      -0.180672295777145     -2.173062690901572     -0.526734808008665
C       0.681694314581797     -1.252237934602095     -2.524891223395205
H       1.472496794672305     -2.017239000894547     -2.378390963184665
H       1.131576940310746     -0.337958853883006     -2.850457961690273
H      -0.070508287964198     -1.579025686417643     -3.281188629976235
22

C       0.279618035108371      1.845828182066486      0.978940657174650
C      -0.596403616531254      0.765188267834606      1.505858364118014
C       0.206358221299190     -0.269150019484944      2.109144977808281
H      -1.306714509026985      1.189975576470326      2.202664445304800
C       1.201676372876145     -0.296792419218645      1.169540323226285
H       0.043842674779276     -0.897908895256846      2.990550395294874
C       0.940316800712254      0.775300388246942      0.068560733184888
H       2.020791633082138     -0.993696908794830      1.348168177247534
H       1.719033917399135      0.987831248325051     -0.750680887093992
H       0.978108635749355      2.389559353579315      1.701796434634658
H      -0.409308328415888      2.559253272114295      0.585605886384946
C      -0.255211909844230      0.254975591315080     -0.754624859493563
C      -1.449886366377354      0.258995449363152      0.285914247177451
H      -2.238227022416298      1.004295751824102      0.021884142694769
H      -1.917231596436600     -0.704668721559676      0.260279219662102
C       0.114464949134150     -1.223851311822022     -1.152670627101889
H      -0.573176400992037      0.862014524516484     -1.637065521679315
O      -0.244482264041905     -2.215224293192801     -0.599985273803735
C       0.650533686793916     -1.341418327791000     -2.607624005156171
H       1.356103676119753     -2.170503337902022     -2.651647806012369
H       1.253290532729535     -0.450833105114841     -2.798841395209250
H      -0.159888412467541     -1.309230985784295     -3.379390960427349
22

C       0.226371382004096      1.841450993753197      0.975158414777069
C      -0.754853537542171      0.888437314852966      1.639847652931068
C       0.223368038846843     -0.213003986483769      2.020808907068385
H      -1.531234686964390      1.243767777642756      2.316522345191717
C       1.245598226994552     -0.328743175964329      1.094708026985602
H      -0.032052958394756     -1.025014529361383      2.693411228657753
C       0.962534229780629      0.734320071224091      0.194866855146973
H       1.852753385224813     -1.210041270597691      0.801401832015913
H       1.880905704164667      1.117735378542989     -0.389334378150297
H       1.073989294199790      2.277883966276833      1.621066967488910
H       0.023602228695362      2.662395962010840      0.293553525325705
C      -0.157979162118232      0.167883961132907     -0.682924847882143
C      -1.369643273243892      0.308012745695237      0.335041923670431
H      -2.166896581027296      0.953244893076635     -0.086352977544261
H      -1.823127769811612     -0.652416850052219      0.460219138913832
C      -0.002436086087253     -1.202349870291883     -1.278740534897599
H      -0.448912298630930      0.837492295970662     -1.535960947616023
O      -0.196016973740642     -2.164143517230350     -0.615416678426395
C       0.701741065159000     -1.422984060112197     -2.653893096373651
H       0.991531374574940     -2.464478268098859     -2.750686226741123
H       1.496911084804110     -0.745511280106757     -3.051857244004632
H      -0.069460471309876     -1.075420106603505     -3.403666008010860
