22

C      -0.054358877019910      1.818292036192819      0.978000695886790
C      -0.885130400871850      0.756600608199369      1.646415371213540
C      -0.008396110223220     -0.265458063823011      2.008732505439470
H      -1.784426625062059      0.987833627452589      2.204802340157830
C       1.193718366157370     -0.113870754970751      1.298685222592910
H      -0.262245946600830     -1.114433596881321      2.628290239716101
C       1.120422421893490      1.020418721708359      0.528661857645340
H       1.993221352956530     -0.841390399401481      1.280148592263270
H       1.895057938714940      1.397305068361709     -0.125190678932640
H       0.287890694966570      2.516734345025499      1.757598249308760
H      -0.555458155466170      2.403955993682249      0.209272238163790
C      -0.700163294135400     -0.034993348405441     -1.014957068363840
C      -1.714487045356380      0.033886352619679     -0.075679580887860
H      -2.449619693011539      0.827769164010049     -0.151553653547790
H      -2.075477670016270     -0.904102434507051      0.329249252262580
C       0.037995126778830     -1.276911931387211     -1.164452438837120
H      -0.512837261450720      0.773727152348119     -1.710901131945380
O      -0.108000216134870     -2.202618371901111     -0.379100983467770
C       0.980229405324210     -1.405757663678131     -2.335145058936740
H       1.363078896085740     -0.442711049025371     -2.678088653987070
H       0.434233439777440     -1.866991205201431     -3.164376608054930
H       1.804753652694100     -2.067284250418121     -2.070410707689250
22

C      -0.029158764235926      1.792134851380250      0.964309767775284
C      -0.859316149079921      0.772971943361762      1.646879167675122
C       0.008369042314158     -0.263569291355217      2.012536690387230
H      -1.818440814255402      1.007777922933366      2.281821890094029
C       1.221249768694740     -0.150422799294521      1.319260708481511
H      -0.339388208424524     -1.028619123618469      2.735069096059986
C       1.091377205599498      1.030226187497413      0.530961787418881
H       2.032802198383801     -0.874050910750437      1.257493859721250
H       1.846919264763598      1.427285746396714     -0.127776264490998
H       0.405506898367984      2.462243576257149      1.741738920156763
H      -0.616166413342147      2.367376995265993      0.220266635925224
C      -0.736523116040330      0.001109503910097     -1.017554131768809
C      -1.772064562401578      0.024566409129333     -0.103740129665085
H      -2.557787524146137      0.827113332958982     -0.109250385328123
H      -2.136839352941081     -0.876288990697156      0.415300366656746
C       0.036019925207424     -1.240792492177729     -1.131000793647408
H      -0.658153652032350      0.807710375521483     -1.749048931170560
O      -0.096493873789758     -2.189194279049844     -0.380393279480147
C       0.973629768769353     -1.390351369401501     -2.367801594349411
H       1.497882338524543     -0.510004441445183     -2.788787823870042
H       0.484174104316285     -1.864950962315767     -3.248160447350460
H       1.764952457907637     -2.116301603388234     -2.119086015776984
22

C      -0.026460171173582      1.786347141758466      0.959063828311190
C      -0.849207792602601      0.787393125117754      1.666819018122146
C       0.018674245922736     -0.267071145996673      2.029393663874387
H      -1.648729758737872      1.001907117923816      2.240139989263602
C       1.237789716014691     -0.163667215189450      1.323156184287887
H      -0.352633377165463     -0.981266645923608      2.761276192946827
C       1.087974701282830      1.008968652572900      0.527557823926595
H       2.074128989264460     -0.931723565633132      1.260913858747340
H       1.827525776244427      1.457451681407275     -0.175632525160920
H       0.454839538034969      2.450078486580555      1.706105839208122
H      -0.600311407637321      2.381452412625947      0.238599294226530
C      -0.773482928082643      0.027759091685591     -1.017461109713995
C      -1.838757368325209      0.025226643510515     -0.113514861281580
H      -2.585371854414458      0.781101679447380     -0.116322156964528
H      -2.157412760558212     -0.881459542273258      0.421550238837265
C       0.037692300204428     -1.202812388761257     -1.131054229916736
H      -0.747532573339236      0.824391503233091     -1.817324703146027
O      -0.086897293948749     -2.174668707005469     -0.373049972604676
C       0.976449938707430     -1.381996791237574     -2.403537833802620
H       1.565450749771853     -0.528796465891178     -2.794344508971151
H       0.461378804431750     -1.842759727326332     -3.256504388789187
H       1.724097376290975     -2.173066908501532     -2.114754601349522
22

C      -0.036491916872352      1.791545337627042      0.964893462611911
C      -0.816767191743428      0.781192869432374      1.692239673985352
C       0.020812910932612     -0.263497562310398      2.044836586308862
H      -1.743299616217694      1.083362627279269      2.376701666389313
C       1.245185691592195     -0.158954907881076      1.311753745610451
H      -0.280172657770967     -1.035067732245277      2.756884935818996
C       1.117958245793219      0.967550650737344      0.511310685487841
H       2.004352348385182     -0.869921161387666      1.282462011247019
H       1.797021735818501      1.422492240544057     -0.169629746914317
H       0.423804005542324      2.505627126252775      1.682575704840129
H      -0.518720121704683      2.453045848238944      0.241556476151060
C      -0.816701802303606      0.044691477932912     -1.019946655737955
C      -1.891482736550093      0.020340135074706     -0.122928823570329
H      -2.678729245199644      0.830042202210038     -0.152217819917203
H      -2.129039834486811     -0.913954587108497      0.365441733064145
C       0.039582704457236     -1.180142748584083     -1.154255272604896
H      -0.757879727664387      0.754774988234878     -1.793644007545087
O      -0.078798774959665     -2.146923297587388     -0.372091905811518
C       0.989061456686629     -1.382168223138625     -2.422348401668910
H       1.555222366695304     -0.488242565553078     -2.710053649008736
H       0.341322470035734     -1.784234388707756     -3.235646822994787
H       1.632136988196513     -2.174964156860435     -2.098942618460192
22

C      -0.028828659648540      1.800241586654464      0.976026573283708
C      -0.813192033547890      0.777930312886838      1.752537765113614
C       0.023607182555584     -0.257563950813776      2.064723428750571
H      -1.636444426383759      1.088483290311449      2.319370265339206
C       1.224264452732651     -0.132994154598032      1.291400755735817
H      -0.160806995808233     -1.131337024297788      2.711530059556616
C       1.150475823789060      0.933510079749269      0.495446741724737
H       2.069460180389334     -0.936502531731712      1.312988597803726
H       1.902793053311934      1.368895326710296     -0.227831730441895
H       0.358207068555118      2.561440449834536      1.707135513807988
H      -0.454119138579401      2.502257523108387      0.217052535649470
C      -0.859051807735549      0.031633722010018     -1.013433508184450
C      -1.928542766840532      0.019817318960714     -0.152509386778206
H      -2.678545161377066      0.774451104079372     -0.160450923621002
H      -2.115779890718021     -0.973962981574654      0.337808598827520
C       0.028203044500505     -1.176817547625686     -1.183679441488448
H      -0.708347702173769      0.818639456849567     -1.845307588755284
O      -0.072290125043662     -2.101307193763284     -0.383566973899119
C       0.975361757277286     -1.376278684166951     -2.416887631074730
H       1.515442728085710     -0.418775848623631     -2.628812034154594
H       0.274177363196694     -1.656543891157838     -3.214328981890087
H       1.640421534691750     -2.248694721750926     -2.105137101610459
22

C      -0.002778387843107      1.807507953343024      0.989102021643592
C      -0.798861822311154      0.788394082841367      1.814187716664751
C       0.027882011078142     -0.261385214202648      2.089531846430679
H      -1.756366259619994      1.119574074356652      2.339393570834309
C       1.224953061091056     -0.135741461351701      1.276386304724839
H      -0.049351236859805     -1.193914910859523      2.626771314276182
C       1.181211155248588      0.939481683726791      0.466978790074200
H       1.964543961173305     -0.871722389410270      1.335122104342832
H       1.969701565784174      1.226820293753590     -0.216190213469619
H       0.304894229591267      2.564070758614262      1.732668506328483
H      -0.453702854379338      2.409515919255872      0.218144744481148
C      -0.889219031187428      0.013867764416798     -1.038970820008208
C      -1.945949573157116     -0.006118041073053     -0.192042770518173
H      -2.737275041515180      0.773773916544956     -0.152680949904700
H      -2.123700842773500     -0.920662721369072      0.318752954332349
C      -0.001978672648032     -1.181280790277226     -1.213214409303492
H      -0.665279417139030      0.798702247504707     -1.721465969761045
O      -0.068245305750991     -2.049333522698623     -0.393090741217942
C       0.948003291212435     -1.359593521118022     -2.384190411171556
H       1.491550771543797     -0.431937597194363     -2.572804756191851
H       0.284233700693766     -1.533955897871606     -3.257984557394712
H       1.597741069910609     -2.182959477792672     -2.205230047011930
22

C       0.032013054723377      1.807831274529990      1.003458644378931
C      -0.776647364577319      0.812120199044807      1.875158473095762
C       0.035031199862080     -0.261761706129535      2.101788323538827
H      -1.810972843656038      1.078310344754856      2.337894733864942
C       1.219270328167412     -0.134798320417005      1.266714304854283
H      -0.054513442183083     -1.255613044618067      2.603120990980574
C       1.195752938178668      0.956807513219278      0.458802331280143
H       1.999393028382026     -0.957473629032741      1.348073455186395
H       2.025339868960110      1.143486485174335     -0.266068718764000
H       0.343395989999724      2.588587200848555      1.737861646686705
H      -0.577652475826208      2.325582533815569      0.191367224276924
C      -0.912489689587426     -0.015992702730520     -1.085051451083319
C      -1.960109952553782     -0.036029728888571     -0.239021958973700
H      -2.734762386588878      0.750347264418584     -0.150358149592501
H      -2.190498369254283     -0.953728157747826      0.387451531951633
C      -0.036956069112616     -1.178744056201680     -1.243298845318964
H      -0.597854575319414      0.912574058263939     -1.635281962212964
O      -0.065424451663386     -2.019963029934639     -0.385312469540889
C       0.899292202927598     -1.314843766754372     -2.357271028145463
H       1.530187786876875     -0.422138510701827     -2.522895015051566
H       0.354546906469334     -1.421214172920076     -3.311930357215299
H       1.600929656351227     -2.199257245303269     -2.277745135577182
22

C       0.050000487496060      1.810757406331025      1.005453611439872
C      -0.740562633069417      0.846237660483184      1.935785805460205
C       0.038394503190304     -0.266099823549360      2.105598325955619
H      -1.707328599330814      0.983236466326907      2.295081982552391
C       1.228034347336674     -0.138861329795796      1.258564707424382
H      -0.142624473856656     -1.205242155511626      2.598431181946935
C       1.203187803003407      0.962168396683057      0.480402841757384
H       1.965603816810128     -0.959725024957928      1.298659753813804
H       1.955320210115325      1.172744731848256     -0.309669779018168
H       0.436010944127663      2.625041766400478      1.639890579527135
H      -0.636447777900796      2.229135836829800      0.291450136843646
C      -0.932092781189777     -0.026963531059429     -1.146534906449277
C      -1.981329518057318     -0.077937182254124     -0.276404716413910
H      -2.690452770401869      0.722665398767128     -0.178722224589402
H      -2.186355752727232     -0.895019688681162      0.373122988081456
C      -0.072053251540619     -1.176048793915555     -1.265327314415018
H      -0.602013324751710      0.931679637347209     -1.567636741271389
O      -0.068578656993183     -2.012116433525164     -0.359300818068158
C       0.872108286814467     -1.267610178071070     -2.361050053457706
H       1.554394606391996     -0.394889882213042     -2.435382493999574
H       0.385954210631530     -1.314660781280170     -3.353782209687587
H       1.496085292764044     -2.153084429855087     -2.284501410960476
22

C       0.046854790145160      1.803757526400598      1.014543424458881
C      -0.664608648527697      0.872625682145187      1.971012243697615
C       0.043976624517359     -0.257172692244124      2.096004285311564
H      -1.777159623243900      0.989424904351520      2.378484932673454
C       1.245287478765029     -0.151433409562788      1.255407185086564
H      -0.266010679387415     -1.175794412789905      2.666690415433881
C       1.200168795421952      0.959022213332295      0.519223286895646
H       1.950748459816301     -0.959914729133460      1.194935119369251
H       1.812246384639448      1.281075275125263     -0.325414993446242
H       0.514329979089535      2.699785992087655      1.500244071982133
H      -0.687845122131916      2.243440630127346      0.307291318026730
C      -0.964815969490750     -0.025651425821865     -1.190134706419846
C      -2.000471867817035     -0.105603437932121     -0.319698695748202
H      -2.712604427626799      0.750574597195561     -0.231219517402118
H      -2.128311765218568     -0.972051633177253      0.372702578440972
C      -0.101578512025834     -1.186458111999418     -1.259879808853992
H      -0.643690457607705      0.912087618064889     -1.612541193078362
O      -0.076143053055702     -2.007579177917440     -0.334751609005009
C       0.867776220138116     -1.220233138044226     -2.393933038424454
H       1.559394799179429     -0.376036722272396     -2.314031305399849
H       0.376819488717658     -1.187808801389203     -3.373373166319409
H       1.418520324344964     -2.169178689324274     -2.256908407633831
22

C       0.032671263860643      1.805538689629390      1.029000316235380
C      -0.612949930031933      0.904216761078931      2.006930941704544
C       0.050406837966381     -0.262198700430872      2.086050707893984
H      -1.554873537447044      1.033138265946573      2.398790048467605
C       1.263762626970926     -0.175620222260583      1.254695086688821
H      -0.313147092752972     -1.083117298201453      2.673872308290036
C       1.184703322200032      0.971216221798273      0.552956403870622
H       2.005114115229519     -1.038787055531718      1.104954715335470
H       1.734927947827506      1.387244278126787     -0.333823706424318
H       0.499636959607679      2.762760709144144      1.365016510391134
H      -0.658066056342942      2.260975618568364      0.277435181186559
C      -1.000739124518501     -0.026879336066974     -1.208737253936432
C      -2.031294229081099     -0.119449774797788     -0.358865857533141
H      -2.738401191492871      0.663728423198003     -0.241828851693571
H      -2.072995159365951     -1.014500170111202      0.266198010203334
C      -0.119313733808320     -1.200444031766454     -1.234866816242784
H      -0.695054030004862      0.917013853667322     -1.769289402014473
O      -0.088632930845084     -2.000798005964874     -0.323416891382863
C       0.872939980048620     -1.185669987716261     -2.423914577686079
H       1.605056686871599     -0.351624616750387     -2.207988200836618
H       0.346523112159200     -1.053558044903519     -3.399353665334419
H       1.391809559156753     -2.174449283673379     -2.326132021015008
22

C       0.019672434474724      1.821503982065732      1.039571700237075
C      -0.564689415124089      0.933450251591117      2.030432949597736
C       0.070700755070060     -0.268936846443083      2.072941818437870
H      -1.571269328823890      1.165584177225493      2.554456374765050
C       1.283194062564972     -0.214709029969386      1.250646256361182
H      -0.291413666062175     -1.109535682846608      2.699539701253667
C       1.163423564088106      0.997884811441154      0.567917149105508
H       1.975392116933411     -0.975411213358434      1.081394424850785
H       1.739755973139701      1.414689562855324     -0.238935592260851
H       0.425488217375060      2.810201028456167      1.315714176685273
H      -0.589493856435900      2.181387521670864      0.216538137872519
C      -1.024243735665556     -0.011157062333032     -1.221533800264300
C      -2.063743032592135     -0.136377370124858     -0.387941349805419
H      -2.879394124180158      0.631565973238843     -0.217221174879330
H      -2.047035515106757     -1.058755482478075      0.172427198738615
C      -0.118062284103079     -1.203466074760199     -1.224882899091154
H      -0.805170618908575      0.786915364340580     -1.870454286641481
O      -0.106211968867401     -2.001207457550767     -0.318238924996952
C       0.878106374208098     -1.164558489910623     -2.432907875996254
H       1.606796715420934     -0.392877395095464     -2.186246244952198
H       0.376384891006582     -0.910446842152819     -3.378418278905094
H       1.393341291413565     -2.106420517500966     -2.506517406010174
22

C       0.020394461688238      1.844745891835544      1.042274912464345
C      -0.552651948470809      0.955176711964883      2.068222919419000
C       0.094850730469037     -0.277981144662891      2.066861693816424
H      -1.444779503182701      1.268961792009247      2.635979186177676
C       1.277956492343191     -0.216635878913682      1.236895893591758
H      -0.195140390506043     -1.140485186256474      2.666873071408886
C       1.152892658117136      1.006040085383772      0.582419545614437
H       2.065618418728800     -1.047899428259571      1.077010129915122
H       1.859379071115963      1.403519992390668     -0.185989774207265
H       0.325995944117200      2.867583307145927      1.365785840433190
H      -0.624788157191044      2.070628851079184      0.094039319127015
C      -1.044766415352546     -0.010069883928324     -1.230385900676931
C      -2.107329755743825     -0.146982162136983     -0.401701723680370
H      -2.920234997202698      0.513652147250718     -0.199313638558028
H      -2.099048973184029     -1.110582000554818      0.164160637572594
C      -0.101662180807815     -1.181978186605512     -1.239900238102311
H      -0.909769477838901      0.797721282854969     -2.019117065104626
O      -0.123230298163879     -2.011227275728787     -0.318947038250566
C       0.870926239074239     -1.148817715108694     -2.421897713001489
H       1.652280754298899     -0.376445834167345     -2.198203567454950
H       0.417365158650470     -0.756436860176032     -3.353970274107686
H       1.434625426016567     -2.105763009338728     -2.682066351216877
