22

C      -0.054358877019910      1.818292036192819      0.978000695886790
C      -0.885130400871850      0.756600608199369      1.646415371213540
C      -0.008396110223220     -0.265458063823011      2.008732505439470
H      -1.784426625062059      0.987833627452589      2.204802340157830
C       1.193718366157370     -0.113870754970751      1.298685222592910
H      -0.262245946600830     -1.114433596881321      2.628290239716101
C       1.120422421893490      1.020418721708359      0.528661857645340
H       1.993221352956530     -0.841390399401481      1.280148592263270
H       1.895057938714940      1.397305068361709     -0.125190678932640
H       0.287890694966570      2.516734345025499      1.757598249308760
H      -0.555458155466170      2.403955993682249      0.209272238163790
C      -0.700163294135400     -0.034993348405441     -1.014957068363840
C      -1.714487045356380      0.033886352619679     -0.075679580887860
H      -2.449619693011539      0.827769164010049     -0.151553653547790
H      -2.075477670016270     -0.904102434507051      0.329249252262580
C       0.037995126778830     -1.276911931387211     -1.164452438837120
H      -0.512837261450720      0.773727152348119     -1.710901131945380
O      -0.108000216134870     -2.202618371901111     -0.379100983467770
C       0.980229405324210     -1.405757663678131     -2.335145058936740
H       1.363078896085740     -0.442711049025371     -2.678088653987070
H       0.434233439777440     -1.866991205201431     -3.164376608054930
H       1.804753652694100     -2.067284250418121     -2.070410707689250
22

C      -0.040635658163842      1.779904948004576      1.032616485310875
C      -0.940253388266324      0.655578678107593      1.560190340165582
C       0.028956619835811     -0.355053977262446      1.935167092220442
H      -1.698869375324322      0.921134114125716      2.289299009193755
C       1.236526386717111     -0.116500598990952      1.287978630136401
H      -0.173748487165853     -1.232337081069139      2.608486453398215
C       1.136308660294888      1.044967542633600      0.518473174039673
H       1.991332463293973     -0.960476210937488      1.131824149969492
H       1.956544079910517      1.483518491142989     -0.095137403413979
H       0.242989800061819      2.415096468748882      1.855843728068167
H      -0.546005564051359      2.493809475471571      0.296237381611697
C      -0.700878310146714     -0.035567639984733     -1.080432411948525
C      -1.649277681302804      0.067530641888180      0.003144737737420
H      -2.398994699668776      0.841678996546892     -0.176745986696455
H      -2.171861094206799     -0.890230925116974      0.238401620576147
C       0.079752536854311     -1.228815587944753     -1.232249341179039
H      -0.432625447725390      0.837025199379956     -1.722048674613977
O      -0.027715877450011     -2.075368436941790     -0.346682456270579
C       1.038252330153538     -1.412518352833382     -2.360126998830498
H       1.314908126325845     -0.498293657025346     -2.776378569027675
H       0.500279381744448     -1.934766688533743     -3.196532866731047
H       1.936159587950224     -2.018493850001438     -2.127158796598499
22

C      -0.065570886730300      1.788862861365727      1.088604427362760
C      -0.917192456339719      0.540246180342510      1.404819944645572
C       0.070169243540227     -0.418903451995649      1.879216344783236
H      -1.795682990381372      0.624274934315375      2.066028206447521
C       1.252381182012038     -0.168190562731977      1.208400474380543
H      -0.176318424347026     -1.368734757258956      2.398593557416818
C       1.101367717657477      1.032637489383132      0.529239370550510
H       2.223753709857224     -0.772250700432694      1.277738223471652
H       1.889941614122123      1.522850722646996     -0.071349637011444
H       0.258289883358988      2.199484493250838      2.033817692226802
H      -0.495057829668017      2.552777107167600      0.332553473548623
C      -0.632393229204912      0.062419893937832     -1.058121195323027
C      -1.580144198814199      0.121354973624178      0.056395394679726
H      -2.387762132450144      0.855230992688722     -0.112645701851285
H      -1.991356966771718     -0.894539577897256      0.269561427758108
C       0.110404380247122     -1.179941729385816     -1.206338735719577
H      -0.768255330174359      0.818793715177777     -1.879281167098836
O       0.059989544378225     -2.033145298513156     -0.309198329029597
C       1.070118252061818     -1.382479628536255     -2.459595428619403
H       1.459013626529080     -0.501834404640113     -2.907791079424838
H       0.549626427254885     -2.079391096780800     -3.159373525970395
H       1.911649102019120     -1.918674565547627     -1.964598209666020
22

C      -0.084864784747492      1.714897530042177      1.131447612454163
C      -0.925313865243970      0.502232595049236      1.383692377972481
C       0.137387288200843     -0.532244684170177      1.761879988673137
H      -1.707748657872705      0.666939253724057      2.149481531546744
C       1.320188854788836     -0.152543882244296      1.250241526148719
H      -0.123513727551631     -1.388281758312466      2.356753119226409
C       1.055579657880483      1.039512281536055      0.435468740019239
H       2.187707990558501     -0.778944031290858      1.121395149256979
H       1.807344838639901      1.557024293994077     -0.122644746754035
H       0.192919976691728      2.241173440145097      2.097379488420136
H      -0.605257155621262      2.532614351422585      0.567654727665330
C      -0.488849408150801      0.160709959072485     -0.994105441780770
C      -1.545138282567615      0.106689414544412      0.010747451809749
H      -2.381287207335463      0.794294105085252     -0.185439115341713
H      -1.995457256432175     -0.895077654043049      0.128154782235565
C       0.158849954926786     -1.110599697874344     -1.213113576829262
H      -0.625272945555121      0.678302278463511     -1.928625309541580
O       0.138281522642796     -1.997234307684127     -0.370192013752757
C       1.034697393139336     -1.365146330240659     -2.383207113930433
H       1.244395789219132     -0.431469727197915     -3.004134008027872
H       0.558599417260296     -2.008970337033293     -3.129233812866575
H       1.937623803024373     -1.930479142683706     -2.128171246197052
22

C      -0.106134688070491      1.695603233954412      1.134163908060991
C      -0.931095246752270      0.405933456157927      1.481954468932775
C       0.158544697875377     -0.572728548566361      1.718536943021004
H      -1.679697972855070      0.470746357829971      2.285036420264384
C       1.358181987345000     -0.100275095050591      1.222643258225137
H       0.085738642617536     -1.567580112068136      2.161470695607008
C       0.948009468146136      0.993233963572215      0.291347274528976
H       2.222657368337932     -0.663086844660046      1.181984905440767
H       1.672959007958102      1.583094468739124     -0.270428909004690
H       0.477419976594383      2.016027165186040      2.079394824834290
H      -0.616698158429695      2.454512377290791      0.589670574249094
C      -0.279437244574670      0.252996788859159     -0.915198623979873
C      -1.549274791026222      0.117613541378516     -0.032225725959913
H      -2.320079182944733      0.863351123256456     -0.298257877407487
H      -1.898773557182720     -0.892783028801246     -0.120247315778100
C       0.287876559024321     -1.077816981174303     -1.200018264051680
H      -0.256631939210015      1.045946307907019     -1.631730905431167
O       0.141044639766812     -2.006444874887181     -0.401534094576450
C       1.035860289585472     -1.331334518464803     -2.439462924825244
H       1.330895282563859     -0.317987446259318     -2.969733633787015
H       0.354375114557612     -1.969951717430883     -2.987944047065925
H       1.933773429161364     -1.877708692761609     -2.129686720804202
22

C      -0.129540792812993      1.642582542130223      1.188756744772016
C      -0.945253732249477      0.357578304711017      1.423875035962637
C       0.267461707085671     -0.565195766944316      1.782059118147619
H      -1.770324932056572      0.333047535387704      2.146978765727880
C       1.311424256571277     -0.119938741252992      1.083024433105062
H       0.096827666303345     -1.549064538338993      2.324999482210252
C       0.784313509781159      0.937105990833348      0.162676384662693
H       2.358001731587593     -0.415999955146370      1.164009955791211
H       1.569917694680584      1.566526025486764     -0.277664363919169
H       0.371967434802290      2.139336042895732      2.060192769425576
H      -0.722171543734813      2.438480202311040      0.821438327572756
C      -0.051665642538458      0.364630262307396     -0.722189493217716
C      -1.397753545770423      0.161747757906861      0.019917635947969
H      -2.167851636829877      0.897681298799367     -0.287014756559131
H      -1.885659083846722     -0.810732845615766     -0.147563626511576
C       0.373171273398585     -1.070991424185465     -1.162216699934654
H      -0.240479233693908      0.864349217195763     -1.680729868923959
O       0.099937591541399     -2.010866182884838     -0.476113879087180
C       1.082171510726335     -1.310614976598397     -2.531223653539015
H       1.381981889224946     -0.392251070873948     -3.100059037264710
H       0.445316946077868     -1.835550334194908     -3.275888772153302
H       1.967773955352088     -1.999384073940856     -2.412675296832868
22

C      -0.187803809718710      1.683575176859997      1.279856006340055
C      -0.860857020127108      0.332413803682655      1.493027000017561
C       0.298540229172798     -0.537400161081196      1.852034149032667
H      -1.724183876501121      0.396156405383363      2.165071562616389
C       1.327034099925328     -0.132696668758957      1.075870186045462
H       0.360717743943088     -1.280540119220660      2.712554302972766
C       0.927504645180214      1.145514506971577      0.323953230539559
H       2.336460441697487     -0.719705122492237      0.892255751221290
H       1.664135152626913      1.849533256257126     -0.101538455158567
H       0.301937442747192      1.922817246815310      2.175740215632957
H      -0.773744783065194      2.458583977247817      0.822846569836684
C      -0.120758666854520      0.241451138103320     -0.935221083427261
C      -1.325645665834851      0.127197412417582     -0.006473742454051
H      -1.983223067002675      0.976378345508916     -0.183703393768280
H      -1.808922166269207     -0.882085164970610     -0.178205697134897
C       0.439302617473600     -1.112620327555662     -1.281157995369747
H      -0.257459594437836      0.962079912023062     -1.784364024441990
O       0.069807901220353     -2.072792150358723     -0.601757741653547
C       1.122788178485400     -1.283370132644964     -2.593357808216174
H       1.506542183144847     -0.362075150231212     -2.905604969963476
H       0.245265331290443     -1.650164595019177     -3.237616139667695
H       1.924433345462090     -2.069926068661351     -2.499651602851348
22

C      -0.124110185228396      1.705967472642687      1.350228069627560
C      -0.816113422970856      0.343041573675956      1.513704705478715
C       0.357774449953870     -0.479252944203990      1.898929071748417
H      -1.608028263778646      0.189993427714814      2.225892286842451
C       1.396839442456457     -0.038925267301318      1.141294627415976
H       0.253778637294478     -1.431864506826198      2.421041605311338
C       0.940377996669245      1.149462407016100      0.429668695729922
H       2.271798875976743     -0.787950364481462      0.885522377673167
H       1.685498641026512      1.829647625286177     -0.011414555099472
H       0.248474420692901      2.173749175889701      2.184771499853676
H      -0.836834214565138      2.454715654350581      0.943160900175464
C      -0.121929870540054      0.239120098121872     -0.954025951903616
C      -1.302121216607215      0.069458977731986     -0.048974798106023
H      -2.116985984126729      0.738130341727734     -0.312193885875118
H      -1.789267585550349     -0.937705790061383     -0.043234096209476
C       0.359902030183576     -1.138270882586599     -1.393576482650005
H      -0.172479774431724      0.935663453345202     -1.817664898294248
O       0.098883732144582     -2.138651301710877     -0.750837890171712
C       1.192337609279519     -1.251950080004923     -2.640258049129761
H       1.730390045148098     -0.391298125855490     -2.954269498995965
H       0.422673817835497     -1.406149720268541     -3.491625650876404
H       1.794427385439129     -2.159871888777419     -2.679650522623105
22

C      -0.131331330415443      1.712590841407589      1.304131682305735
C      -0.834477887621621      0.385458071678665      1.510904113928878
C       0.364552754726797     -0.505034571708735      1.842846597715185
H      -1.735584488806659      0.433708504492722      2.147263126736852
C       1.459283269116020     -0.019123404766662      1.222291921340149
H       0.285851815704398     -1.479265197641162      2.212866143178648
C       0.929172139793246      1.051109083707635      0.329561935855256
H       2.549209358125109     -0.229236345899558      1.156371622268976
H       1.644389975644423      1.726759602270716     -0.163050772596678
H       0.355485797993599      1.968142089909986      2.223109366719205
H      -0.696493649729637      2.567461000830262      0.808591047890369
C      -0.046125062304575      0.266045525522721     -0.780945382290725
C      -1.287088844961665      0.017217405197304      0.070702560866006
H      -2.096351550033985      0.717590324270404     -0.197506683261365
H      -1.551255862030607     -1.019034345082287     -0.029131496446323
C       0.372888439813831     -1.107447101195012     -1.425006033128095
H      -0.241545352452115      1.017243745309482     -1.572984466387843
O       0.137038011412694     -2.162431218362903     -0.899322255986783
C       1.220988117824267     -1.216041659174085     -2.752334706057089
H       2.062308493630054     -0.450448886030576     -2.698783095488436
H       0.672951904312807     -1.163476556921367     -3.704029392223876
H       1.650366877383139     -2.168311091228844     -2.567727773459109
22

C      -0.068730567569579      1.668996580593211      1.144473635103651
C      -0.862668636557450      0.395945162027056      1.529340045588300
C       0.354346762923050     -0.549814451863117      1.785623590107976
H      -1.507746946639341      0.387547112415634      2.458966854547906
C       1.465053677901650     -0.036692585465612      1.273951848025604
H       0.276665463996125     -1.337200945271853      2.551382889451399
C       0.939658724465872      0.982982877336591      0.205929485466229
H       2.387105838477179     -0.388563593707952      1.554326455398423
H       1.660500922821207      1.650458265214566     -0.292765531923088
H       0.466807528812895      2.168589457177799      2.041125645587373
H      -0.764385317477631      2.476592060752459      0.741707965627725
C       0.037325266521915      0.256725932082670     -0.709761111782450
C      -1.304666932510403     -0.037548800073343      0.189310826321081
H      -2.146086887606400      0.576781136734694     -0.211783840365200
H      -1.732172554267006     -1.010765294584995      0.145163434739959
C       0.510856412093231     -1.025370139855750     -1.428070079923580
H      -0.315249203728478      0.977877935930015     -1.461867806306441
O       0.166042832550483     -2.125514001654643     -1.024009986723478
C       1.252504987711315     -1.116240588414064     -2.711747930342689
H       2.210220353077860     -0.467308242782261     -2.721207893220427
H       0.662553349532808     -0.833110810647401     -3.534881533964398
H       1.485934912698751     -2.147003766317431     -2.931848163937453
22

C      -0.031444487898834      1.692292323175871      1.053704167145157
C      -0.719327298094619      0.385561254941704      1.562999337207103
C       0.343580530493510     -0.509051030014165      1.912348290240836
H      -1.549769543312691      0.545123107344715      2.313168359570438
C       1.453041713578473     -0.125183752659018      1.247919169559806
H       0.338249733653001     -1.377424815721451      2.660786394129345
C       1.024478407849944      0.918232524177245      0.262578412066420
H       2.404985850094551     -0.557135609501744      1.201024169092516
H       1.853834872239731      1.456924793155893     -0.239647279844789
H       0.420312330413143      2.399833617473209      1.913644353240166
H      -0.650911433784502      2.273353161316448      0.345865937341748
C      -0.076215128102585      0.163660532390326     -0.769660751943891
C      -1.307724921188039     -0.091053892809977      0.112957139699343
H      -2.160140627114078      0.563155343389152     -0.176966723456997
H      -1.475445037885454     -1.181177997591191      0.115375506382330
C       0.553997285828562     -1.018685947196125     -1.421834783767342
H      -0.323211068026525      0.867365155016843     -1.575235081238063
O       0.171484467234014     -2.104574064474781     -1.069179299106389
C       1.322245192262572     -0.911548951956339     -2.702065598457579
H       2.313788955470069     -0.414628904079457     -2.728631456619370
H       0.670764059924222     -0.280094460222420     -3.223921691958549
H       1.326200239620438     -1.997372607722611     -3.051504957215972
