22

C      -0.054358877019910      1.818292036192819      0.978000695886790
C      -0.885130400871850      0.756600608199369      1.646415371213540
C      -0.008396110223220     -0.265458063823011      2.008732505439470
H      -1.784426625062059      0.987833627452589      2.204802340157830
C       1.193718366157370     -0.113870754970751      1.298685222592910
H      -0.262245946600830     -1.114433596881321      2.628290239716101
C       1.120422421893490      1.020418721708359      0.528661857645340
H       1.993221352956530     -0.841390399401481      1.280148592263270
H       1.895057938714940      1.397305068361709     -0.125190678932640
H       0.287890694966570      2.516734345025499      1.757598249308760
H      -0.555458155466170      2.403955993682249      0.209272238163790
C      -0.700163294135400     -0.034993348405441     -1.014957068363840
C      -1.714487045356380      0.033886352619679     -0.075679580887860
H      -2.449619693011539      0.827769164010049     -0.151553653547790
H      -2.075477670016270     -0.904102434507051      0.329249252262580
C       0.037995126778830     -1.276911931387211     -1.164452438837120
H      -0.512837261450720      0.773727152348119     -1.710901131945380
O      -0.108000216134870     -2.202618371901111     -0.379100983467770
C       0.980229405324210     -1.405757663678131     -2.335145058936740
H       1.363078896085740     -0.442711049025371     -2.678088653987070
H       0.434233439777440     -1.866991205201431     -3.164376608054930
H       1.804753652694100     -2.067284250418121     -2.070410707689250
22

C      -0.047624819866704      1.879280928889301      0.956918823599698
C      -0.930617434698169      0.779505247578778      1.553405806911267
C      -0.015339277466960     -0.282969708721846      2.009746508219290
H      -1.858331696404307      1.013962790731529      2.096377934241673
C       1.231333420270750     -0.144577842919054      1.419992101138834
H      -0.326247716094626     -1.138445514194881      2.608462758858219
C       1.066226198748879      0.982262711656792      0.571031926017385
H       1.979371582314960     -0.820677537430779      1.306549471243926
H       1.795521943376364      1.323889259190766     -0.136740185431516
H       0.291947312918947      2.642092405008457      1.653686024314705
H      -0.453089937162308      2.352307652208075      0.100332779464753
C      -0.649996523238050     -0.044290713285990     -0.946338816263916
C      -1.664900790810089      0.066752777529946      0.069439199833637
H      -2.350456982495761      0.862219918943754     -0.125314895241333
H      -2.200311462874138     -0.871033131734267      0.297660013186127
C      -0.018988702733714     -1.340232896044317     -1.122468243906384
H      -0.697300694650010      0.635479661315384     -1.802623553501223
O      -0.219848297129260     -2.209875688500786     -0.237971192912555
C       0.876952373210246     -1.463116008254298     -2.371992329256817
H       1.311601290123028     -0.461681440353496     -2.632203508239860
H       0.373076991004315     -1.857335620530269     -3.291006494453261
H       1.667508377333121     -2.151605575622475     -2.111281920321874
22

C      -0.061331497658577      1.815553962216900      0.927291641372049
C      -1.024300080729231      0.700804301737054      1.455344978660021
C      -0.055195560428691     -0.244244588685164      2.065572551130908
H      -1.670712219536044      1.086746554746236      2.274520203732191
C       1.162777681965014     -0.102397180009770      1.454242484759155
H      -0.378279174866585     -1.109225814302025      2.665810153366686
C       1.093348505795804      0.931895372104371      0.468868751225345
H       1.961030804902416     -0.783849114818306      1.674882788214342
H       2.006236075998923      1.277290454511699     -0.066618050611862
H       0.232884073939547      2.451633579904540      1.774306441083457
H      -0.489423450634853      2.481430314533672      0.163627275807300
C      -0.568481959293039     -0.039832649935748     -0.853287430517238
C      -1.607162154247572      0.200259866904488      0.246308695300787
H      -2.389827532888385      0.821924792505393     -0.181204571811125
H      -2.035878279022471     -0.791865455649948      0.540554721536654
C      -0.113896265525746     -1.387291641833681     -1.065623631631821
H      -0.464061705329333      0.723642904448351     -1.676936226914384
O      -0.281760522979190     -2.207189035664258     -0.204301228813036
C       0.783917574633723     -1.557164169635796     -2.304755861978628
H       1.266475705730088     -0.568916897450529     -2.584559672537638
H       0.013048382818512     -1.820343204109589     -3.097539713162365
H       1.559476507157511     -2.337945831373538     -2.309590067396948
22

C      -0.025887230530250      1.773612033665662      0.954665993243894
C      -0.984885820089342      0.793324686368927      1.554274436994470
C      -0.078650030919600     -0.223249507119698      2.098986775397539
H      -1.885669414993522      1.142897489218216      2.081308079142032
C       1.107375952124644     -0.099254064634327      1.497678866889793
H      -0.243320106108029     -0.888334785983182      2.961778383856915
C       0.964425994162533      0.830398901499379      0.349605704976852
H       2.097190744339842     -0.691069672188918      1.716778408775644
H       1.801862560292703      1.273604114618800     -0.279056964937668
H       0.448203946656571      2.312331196258860      1.806793465116410
H      -0.551930727530837      2.499487640793657      0.226697321765128
C      -0.449511027214325      0.072729112505120     -0.666364562511947
C      -1.650238144657805      0.163199071222722      0.183184185900029
H      -2.398783325190821      0.969740267639668     -0.045661674021895
H      -2.205959819321738     -0.786633294596457      0.337041895000987
C      -0.046431589423863     -1.368484593985891     -0.965539882350266
H      -0.527780119064640      0.698816057248350     -1.587595332744816
O      -0.358196778223478     -2.254969246012791     -0.186236494555773
C       0.622481286978837     -1.665955793692902     -2.271116382532962
H       1.253663601349639     -0.778822561389530     -2.564165181190059
H      -0.017513343428421     -1.830703203594616     -3.167878583481372
H       1.218940471805815     -2.606000968060096     -2.023179998748842
22

C       0.001892846776388      1.884812868530347      1.018424388783958
C      -1.073003572294069      0.810064200378950      1.582155763210500
C      -0.024088934140637     -0.153216911237444      2.232859898742535
H      -1.652098233883255      1.226248335897607      2.396726596216780
C       1.079619558967775     -0.153930686058376      1.476859280851814
H      -0.324337325528329     -0.775627935977474      3.063792948703222
C       0.659419407795610      0.694591886702285      0.247016007491037
H       2.032235591113851     -0.846384329608477      1.552226980701375
H       1.527918114724278      0.888422282650462     -0.403496299474481
H       0.677670412863201      2.455951895765759      1.726048929186962
H      -0.492556497562501      2.672071486403104      0.307180501452339
C      -0.255265884951025      0.109615110762817     -0.557704489446934
C      -1.640707220913054      0.201793944849890      0.230980956031142
H      -2.312577928139643      0.805129090114763     -0.446456349893345
H      -2.103677615322698     -0.783848529105838      0.313337464244693
C      -0.060017946135722     -1.336199927914592     -0.886157556608375
H      -0.288544307269110      0.673340459957792     -1.475623050314680
O      -0.412695344392771     -2.283547856651846     -0.183753773501587
C       0.540668328487474     -1.779447375729773     -2.223452891465419
H       1.408972554785692     -1.223540957741511     -2.626370540739273
H      -0.345890889410899     -1.837609847327140     -2.877882466492327
H       0.888696501898587     -2.865506285240897     -2.160220902342784
22

C      -0.076797851229935      1.856179460615488      1.006320951973253
C      -1.035447187269437      0.926191285714228      1.666583500897644
C      -0.057445073328763     -0.080567327621422      2.323469838844692
H      -1.954254917317465      1.173074147464461      2.121979331711835
C       0.941771802397982     -0.228094844572692      1.424463329153651
H      -0.159899190058497     -0.722556879311412      3.181805535553217
C       0.841924563715282      0.798440281994164      0.374369997272298
H       1.701754332483496     -1.012586142476989      1.421734733267968
H       1.694296431360420      1.179404696804456     -0.151794008678272
H       0.546434114532099      2.265122569126616      1.840210635507097
H      -0.482412844803490      2.696561580318877      0.334552507986681
C      -0.425253709927486      0.008581780440492     -0.639954672928072
C      -1.549667066387239      0.286341105469224      0.326784411877286
H      -2.362921348921162      0.951137112880983     -0.021883223449614
H      -1.980194135333665     -0.659513577534509      0.636433507855148
C      -0.021375360329018     -1.486661923982610     -0.908570059908320
H      -0.467097830096311      0.496418703897019     -1.587000803399673
O      -0.462561021103109     -2.267732653592106     -0.140045775214670
C       0.467322921566475     -1.936413114406210     -2.200308581783225
H       1.274217679824105     -1.332824754871057     -2.656937944346396
H      -0.329150764637983     -1.616011911912270     -2.887087863505948
H       0.583679777871967     -3.002648986683886     -2.149698200697510
22

C      -0.012126823414653      1.885005585209582      1.064928054198075
C      -0.999990540214003      0.926703751853219      1.695157434246638
C      -0.147024674746072     -0.043032063538924      2.306291544527109
H      -1.622329133367133      1.515749555108975      2.366951766558418
C       0.896113014000621     -0.231027787393826      1.483655954741903
H      -0.489250523077887     -0.663909297614886      3.167275801076159
C       0.872120709293547      0.840784919483803      0.383888803330810
H       1.474117400457639     -1.071767631824771      1.515780579929472
H       1.828509412748684      1.120630685569935     -0.043454270618155
H       0.429192996758103      2.669582627147863      1.705043186639367
H      -0.573364199429999      2.401029082543711      0.268761775890502
C      -0.385509972758765      0.036384507764669     -0.647912959872217
C      -1.566183316979244      0.232482265285371      0.420920073237001
H      -2.226128841905355      0.946934176255544     -0.041956602413821
H      -2.155006438605630     -0.701345298731746      0.605122860286344
C      -0.181110326195369     -1.490562823127996     -0.857389697592608
H      -0.675106108413195      0.553324373841179     -1.558133422208421
O      -0.494153504687965     -2.337304026864737     -0.030106997403302
C       0.403742884791903     -2.011899501945599     -2.269778764725318
H       1.425522858800906     -1.655643828367582     -2.439961735905531
H      -0.302624841803866     -1.820451247552140     -3.084196262656558
H       0.512877699524884     -3.067672078717862     -2.296916128206767
22

C       0.037708194517624      1.942242151996869      0.946150324924255
C      -1.033569618361151      1.002430136542662      1.685433153781314
C      -0.174328374944934     -0.117678584938716      2.318711094976066
H      -1.900113546392897      1.338222564152092      2.360033846063538
C       0.967976311293575     -0.201480660022276      1.607020158336487
H      -0.521035821037296     -0.893851033212128      3.052198655703484
C       0.740792428630629      0.650081414556804      0.360827018169102
H       1.693035152846610     -0.981038960203244      1.569088029409346
H       1.607376740750266      0.823631052568448     -0.304909888768971
H       0.695564684668671      2.480512962181802      1.617110918280326
H      -0.387545526038043      2.651806854285592      0.289655816838470
C      -0.312184263691263      0.041828048455462     -0.406864455449120
C      -1.648283460656403      0.253587836123982      0.395817374732608
H      -2.421055853991605      0.779536443577298     -0.157606093495250
H      -2.015812418155528     -0.785976619702899      0.683164186505912
C      -0.279548039023981     -1.484886225925118     -0.861894845293892
H      -0.240624389824430      0.656505089493575     -1.325184676660353
O      -0.491864797353552     -2.323925216146917      0.018682618210764
C       0.278035836929376     -2.020270583188711     -2.186668728447698
H       1.289067000765339     -1.647686130109869     -2.295870448250208
H      -0.155375429962084     -1.626083730170558     -3.124777095066959
H       0.268143462584514     -3.097230562928076     -2.070364917844307
22

C       0.067885714399539      1.784427064608744      0.931846366584884
C      -1.060936672690470      1.003222892298082      1.601886155580727
C      -0.161406646570242     -0.080221371364847      2.311251032389093
H      -1.869229549006403      1.625269185804363      2.192944151852796
C       0.987346984258937     -0.196208607195932      1.653606997599842
H      -0.461435974707130     -0.701052286876818      3.147958795831504
C       0.784025128224440      0.577585925671570      0.429023800563610
H       1.910555861681499     -0.788186655989238      1.985145832448694
H       1.698253985277197      0.715641634090822     -0.204275185138620
H       0.712544586920703      2.212095237057757      1.658104272301423
H      -0.141523205142056      2.505685853830661      0.184762890340479
C      -0.484229421350510     -0.078197738831702     -0.457058062277933
C      -1.651689907820120      0.289954161714369      0.413812712999463
H      -2.416602046886302      0.916781516203627     -0.111292050291375
H      -2.184099464575604     -0.598386822051668      0.799735753428794
C      -0.252300862173208     -1.469197040216731     -0.741221635696101
H      -0.571533116437674      0.528811913088391     -1.402571608550481
O      -0.530070965036938     -2.291644396026538      0.045016871460999
C       0.164992767153624     -1.942649470233293     -2.050325240921162
H       1.246419675169230     -1.827525128889353     -2.082528733831272
H      -0.391741312578127     -1.477158573563847     -2.877830111936677
H      -0.059624303816980     -3.057423863459993     -2.113589896569056
22

C       0.151048825756033      1.722383548565394      0.955056292163890
C      -0.997826653329529      0.956625472480458      1.587127362654306
C      -0.215849713413144      0.038654874227755      2.374389407002364
H      -1.585690199609634      1.599866188633580      2.359458729999932
C       0.926484745177431     -0.249994107285800      1.705862067994778
H      -0.488831240842017     -0.286659714642111      3.332617307285225
C       0.890110201595060      0.501129694093208      0.364838308145623
H       1.810952034664944     -0.936585855381539      2.025496534485010
H       1.805554796368071      0.717384703427059     -0.223569594605011
H       0.598294139382478      2.419473594355913      1.649379487892941
H      -0.332440607922274      2.261056651398837      0.101954641070426
C      -0.548497440072723     -0.002019667323009     -0.539393062013709
C      -1.779619036112390      0.269561167157515      0.426756442696496
H      -2.350322642715566      1.122248515352764     -0.112396777312317
H      -2.431849220259839     -0.548730709247605      0.655494064435404
C      -0.313809087459757     -1.529735441318048     -0.641334519602627
H      -0.693816828269302      0.407089328968492     -1.574584024830956
O      -0.599381373449320     -2.337291372693805      0.222046928731553
C       0.152159130768105     -1.907534728839788     -2.024823712292391
H       1.223066191437699     -1.960179666809591     -2.308586514709189
H      -0.292794872620211     -1.206172161670990     -2.751763584973295
H      -0.280062465091938     -2.949737504245860     -2.162563561779488
22

C       0.112665813999936      1.792711449239929      0.810816859108430
C      -1.000358269089489      1.035209239767240      1.661156878530615
C      -0.165386032134867      0.038853034392374      2.483270411195585
H      -1.814465696686534      1.615291480678674      2.134787876292494
C       0.873296552575743     -0.331248620563683      1.689320317012397
H      -0.485573224351344     -0.363491118675387      3.456903604465249
C       0.762645935290446      0.463772211949544      0.389076067395371
H       1.421388153691424     -1.267092904178486      1.884144211051055
H       1.592102982643321      0.370729065283632     -0.315173004291031
H       0.901296733508271      2.220321702387673      1.487555875549886
H      -0.250342328896009      2.638941760134212      0.101516111610146
C      -0.491179834262091     -0.095814243442025     -0.392581561728706
C      -1.754315105926493      0.355749853002357      0.332166205432537
H      -2.532643005745903      1.080827939854325     -0.062513818158957
H      -2.275467367177508     -0.553451110116641      0.687276502787397
C      -0.405241440773355     -1.581493237251192     -0.613231813498584
H      -0.357036384755013      0.543138233698037     -1.247008142175198
O      -0.625450759180895     -2.312884221685316      0.362488524486066
C       0.100554252600270     -1.981379165914572     -2.020125301415484
H       1.217049903755275     -1.902034043741314     -1.851155570873571
H      -0.164832647029232     -1.147045015100769     -2.735665249941607
H      -0.175506145740123     -2.942194605944551     -2.435627480452501
