22

C      -0.054358877019910      1.818292036192819      0.978000695886790
C      -0.885130400871850      0.756600608199369      1.646415371213540
C      -0.008396110223220     -0.265458063823011      2.008732505439470
H      -1.784426625062059      0.987833627452589      2.204802340157830
C       1.193718366157370     -0.113870754970751      1.298685222592910
H      -0.262245946600830     -1.114433596881321      2.628290239716101
C       1.120422421893490      1.020418721708359      0.528661857645340
H       1.993221352956530     -0.841390399401481      1.280148592263270
H       1.895057938714940      1.397305068361709     -0.125190678932640
H       0.287890694966570      2.516734345025499      1.757598249308760
H      -0.555458155466170      2.403955993682249      0.209272238163790
C      -0.700163294135400     -0.034993348405441     -1.014957068363840
C      -1.714487045356380      0.033886352619679     -0.075679580887860
H      -2.449619693011539      0.827769164010049     -0.151553653547790
H      -2.075477670016270     -0.904102434507051      0.329249252262580
C       0.037995126778830     -1.276911931387211     -1.164452438837120
H      -0.512837261450720      0.773727152348119     -1.710901131945380
O      -0.108000216134870     -2.202618371901111     -0.379100983467770
C       0.980229405324210     -1.405757663678131     -2.335145058936740
H       1.363078896085740     -0.442711049025371     -2.678088653987070
H       0.434233439777440     -1.866991205201431     -3.164376608054930
H       1.804753652694100     -2.067284250418121     -2.070410707689250
22

C      -0.045048347834559      1.835390692259396      0.978295322298594
C      -0.855976851120721      0.751749615437443      1.664181643112800
C      -0.012150105649580     -0.319301359323201      1.960134802322841
H      -1.749727263742423      0.941457587067054      2.241832442435006
C       1.157675632066801     -0.136654016061061      1.229864950879604
H      -0.281990371443697     -1.067300120406559      2.688245977178910
C       1.119257450889469      1.056052447555776      0.566765161430941
H       1.980453712437961     -0.863338754605882      1.144094222020562
H       2.007213635800587      1.369738889434918     -0.026136456835087
H       0.210321484284548      2.538639361737289      1.816878908841405
H      -0.597269023156776      2.496558845740934      0.251312803925163
C      -0.699492021737812     -0.002072607238758     -0.973705248286506
C      -1.735248742080046     -0.002863934662693     -0.049564882697957
H      -2.457021643852077      0.831628516645607      0.017001525028458
H      -2.149530007642279     -0.898333282752098      0.475330068570506
C       0.082500088227485     -1.297828232030595     -1.140108458859874
H      -0.554197583156051      0.788988340882937     -1.779514904877458
O      -0.124551544410313     -2.181853016646687     -0.348587942101508
C       0.990522695242229     -1.431421544526048     -2.305697713104781
H       1.322866606628799     -0.382786951727844     -2.397356615108723
H       0.442334344674738     -1.811923525115815     -3.202838181632218
H       1.900666004577215     -2.102200815753163     -2.127199231625789
22

C      -0.059583792151007      1.869469825953540      1.010371380805311
C      -0.839935723308334      0.748539704404635      1.679161052520606
C      -0.031912424190638     -0.347473649891402      1.944034865232659
H      -1.751727172829218      0.968255057398602      2.305989981608615
C       1.150070396036069     -0.167241143201995      1.168092811615268
H      -0.247873386617727     -1.172381727730833      2.664938425023871
C       1.148460351035571      1.084901892219879      0.574846217265263
H       1.958250757356614     -0.894433860362694      1.036944947054705
H       1.996638555438614      1.445127427633345      0.014798172783933
H       0.235058824513841      2.545282262652635      1.819802157307465
H      -0.560345232556830      2.459629117858584      0.261716482565521
C      -0.701348165717802     -0.004042917918044     -0.947428486679985
C      -1.748224219175746     -0.022566959150921     -0.011312398653588
H      -2.433535246657869      0.817606425443257     -0.021596879704044
H      -2.073894492592380     -0.976608048258794      0.347424349451049
C       0.074737970176314     -1.297019983851247     -1.120652716080740
H      -0.634847410271196      0.789457316859241     -1.639443800466789
O      -0.139964653588636     -2.190759800818285     -0.302143420263819
C       1.024334193364540     -1.438551497074124     -2.277018817420793
H       1.394590403570579     -0.389853392824643     -2.388042794141056
H       0.479339567921045     -1.632628797450764     -3.195166534733044
H       1.843470770100865     -2.088573295353765     -2.133925347271210
22

C      -0.053656985216213      1.866288927531575      1.057022741025849
C      -0.861663592419862      0.754868066533433      1.705083706399031
C      -0.013337117880117     -0.359760212751353      1.946561846745889
H      -1.702304477702434      0.993453646342784      2.323084579792165
C       1.156828237054608     -0.177220945602880      1.123061776393818
H      -0.226527373498136     -1.262192269504517      2.481012668304923
C       1.168372455703500      1.089425998676902      0.567549671127843
H       1.920158242679991     -0.934451156013355      0.989436957807772
H       1.935454738532527      1.576983309263297     -0.036832260622471
H       0.301420765647042      2.585339650201073      1.845480289844778
H      -0.581019377924707      2.425765026491390      0.252582298062482
C      -0.709388072417881     -0.054225926794909     -0.930241846590097
C      -1.736461869250821     -0.015757618352455      0.009076407747121
H      -2.496580347173194      0.771040802664498     -0.104615840433184
H      -2.038453501126837     -1.062009095645257      0.235143031651969
C       0.019345136189821     -1.289943815791631     -1.078198916605532
H      -0.584366057924265      0.868577169739023     -1.558164511209156
O      -0.147229264679377     -2.205051481598566     -0.270474733554461
C       1.045989700529380     -1.391575305728452     -2.240922775661144
H       1.594934989002833     -0.482778476554004     -2.484696570488850
H       0.478978745549958     -1.531036957801778     -3.200133675383682
H       1.787428283534622     -2.232088710086161     -2.073945173815090
22

C      -0.024689133588461      1.829539876016274      1.103523903445079
C      -0.874250565819852      0.743626796954311      1.731737285476571
C       0.036849307501922     -0.349953243492228      1.932540738045085
H      -1.726376058948233      0.984058966881517      2.381257535622753
C       1.164909028653881     -0.166513603233407      1.117084981332127
H      -0.282885835696596     -1.330221758520262      2.331038789357600
C       1.146584762772527      1.090819130741036      0.554740641799689
H       1.884974857351265     -0.989344846783874      0.965465991996021
H       1.898998900548365      1.610471466572012     -0.089558403011924
H       0.295800128461275      2.593847487554416      1.818769616969697
H      -0.583670821799463      2.430603355504398      0.354243493052446
C      -0.728561573728021     -0.081382120210252     -0.939806648629204
C      -1.727821543123876     -0.006119170153899      0.012807278989130
H      -2.578470305617101      0.682882353028660     -0.121447290618201
H      -2.107465611096575     -0.978326308402141      0.402256656205930
C      -0.008589660753472     -1.276400984725199     -1.046072882566232
H      -0.409602938982647      0.767788957837560     -1.548393078115686
O      -0.149122620243727     -2.222144758047180     -0.257891949947415
C       1.053756171735975     -1.344493562153745     -2.203926589502023
H       1.791203192170369     -0.534899120409398     -2.368906515476751
H       0.490580456537542     -1.548984809288869     -3.132163068886377
H       1.538093701996103     -2.316103101056113     -2.024476431541453
22

C      -0.011899682247070      1.791141621845063      1.138256484358944
C      -0.838584931010086      0.713615608147274      1.752137840596992
C       0.051969433789410     -0.332076383720443      1.922675161652881
H      -1.738214448674180      0.914023236476541      2.393850058774166
C       1.188555601344615     -0.146960811439483      1.122235080280898
H      -0.243313736717097     -1.331109289633969      2.277679532955623
C       1.110088682671426      1.080359051118457      0.542595396673721
H       1.883960283880840     -0.961943458145747      0.920341880432255
H       1.871086698972861      1.511931132768155     -0.074822609887165
H       0.317306747177803      2.530956022401686      1.893144190696089
H      -0.549305248650194      2.421147908893591      0.438967716034864
C      -0.759954099116941     -0.072362775623262     -0.966941556142753
C      -1.756350480570303      0.008223371838678      0.018025799741373
H      -2.545703191754659      0.741684224086863     -0.057694636346381
H      -2.085179189706955     -0.838484557474577      0.563285077190206
C       0.016684764636861     -1.277463384886531     -1.026494535026175
H      -0.375050296377897      0.701408744306885     -1.582633767571885
O      -0.151146856174859     -2.232011435651574     -0.263158263108613
C       1.036308766272854     -1.350669789610768     -2.144869834394534
H       1.797044831523392     -0.559579992310979     -2.091933705677475
H       0.510708533172806     -1.405492787547654     -3.105520961215098
H       1.477811120891052     -2.314479438676939     -1.961585041238408
22

C      -0.027561213002672      1.795682628733006      1.160283607465517
C      -0.795269805852344      0.694536092233014      1.781398859374917
C       0.055620367187194     -0.355452587641927      1.921734567561666
H      -1.653224023703244      0.832814754074945      2.374194152184042
C       1.219872484337187     -0.136511459793621      1.135148951945729
H      -0.151974947274194     -1.279443477827404      2.404805431396776
C       1.103716443661210      1.061296284781858      0.532606563295205
H       1.990164651228023     -0.851502297426965      0.928087178724743
H       1.862654587114621      1.481340942128040     -0.139562502675462
H       0.391035457012977      2.398967299769337      2.006512224564965
H      -0.584428945635743      2.455811776158129      0.443723715042460
C      -0.816700242605001     -0.057543778813687     -0.967513217244093
C      -1.782016997845697      0.046202935073890      0.004691367345329
H      -2.459507677907199      0.918107988608477      0.021606562639782
H      -2.011126141271262     -0.893601320917438      0.557869684050451
C       0.026602615314380     -1.297054170628149     -1.017880727875097
H      -0.575151898293394      0.805129879031844     -1.653034666682880
O      -0.147127300517997     -2.248158022985488     -0.275073710339942
C       1.018600535313665     -1.386482748705878     -2.066878506383711
H       1.722312871585265     -0.560748068206908     -1.899988790465837
H       0.584396981809759     -1.107482795476886     -3.059788661303021
H       1.606950767302801     -2.376607595294516     -2.009483926874703
22

C      -0.041913863518544      1.824529320558694      1.158659783501831
C      -0.773060553443624      0.692511140324577      1.820430101676884
C       0.086756874089441     -0.411338460957885      1.936959423567292
H      -1.674844922096105      0.817320097916485      2.473094563506005
C       1.253607820075072     -0.145752420802868      1.164799865464162
H      -0.097519399658755     -1.258814827728698      2.640825535585011
C       1.116082709806470      1.068423649028466      0.515701811816824
H       2.146027461499509     -0.813850863678271      1.035630506119107
H       1.809720206532625      1.508425985693120     -0.232864173090566
H       0.407006446090569      2.342914316957579      2.010165355022250
H      -0.602423348175414      2.520608520540788      0.558620004244375
C      -0.857219534068081     -0.046899764795569     -0.968969478209758
C      -1.797730169579498      0.077551656040800     -0.015530049836408
H      -2.417196248784695      0.969457569446785      0.068160632636096
H      -2.064139869895239     -0.911464020032257      0.385204534346085
C      -0.020723826762197     -1.310894324194201     -1.004170512825835
H      -0.821799702395890      0.766299720153735     -1.684475253503906
O      -0.147644574056296     -2.268293118353012     -0.275943737369574
C       1.048630214825820     -1.405753899372025     -2.020099914597032
H       1.715843232148923     -0.579059024907872     -1.702370127901183
H       0.694450639921622     -1.030299181078047     -2.965024558215004
H       1.547439517095708     -2.323517670628095     -2.187093486507429
22

C      -0.029586027293963      1.824570338184617      1.154511031901094
C      -0.749971707953436      0.668437915969901      1.868100679982423
C       0.126539741032823     -0.427281594287340      1.988601336750227
H      -1.618762259889216      0.842988255994611      2.522960100612278
C       1.287635656320479     -0.140410044569462      1.190960185916551
H      -0.009963105371613     -1.223143164637499      2.723521543421565
C       1.113142889475464      1.076578241875613      0.501068611685886
H       2.159732964900686     -0.799455936821915      1.154194784611756
H       1.751523346233650      1.494824383184647     -0.246347497738619
H       0.419040954135056      2.427287379730922      2.003656553109141
H      -0.640600749059728      2.602149120895467      0.624477345973449
C      -0.860788760588487     -0.055863689772635     -0.990627926766921
C      -1.829931395582464      0.067587520752033     -0.019570733886889
H      -2.467413655091048      0.933196376615706      0.033252087452210
H      -2.293597317611182     -0.846872015643066      0.347265245626953
C      -0.080615657420890     -1.323132693538859     -1.004275327936682
H      -0.785014436408209      0.672944863120566     -1.796017556207133
O      -0.182180682147707     -2.281847651692672     -0.255697538189924
C       1.090943911397599     -1.365144533920924     -2.006132992183295
H       1.866120107541885     -0.706858882043726     -1.569334731895474
H       0.729778914709769     -0.977293140756556     -2.994203309987603
H       1.503318060761497     -2.398450031202538     -2.208977291471414
22

C      -0.013530323617557      1.790850391415924      1.179743086743514
C      -0.710081813830569      0.654405885153268      1.910801401380719
C       0.181618713428476     -0.373680579148838      2.055240312333285
H      -1.546795734085324      0.818923125268619      2.535611115543085
C       1.296292306972715     -0.107982343393352      1.204220663288004
H       0.075681049806478     -1.255013897362685      2.664863604329243
C       1.093479311752712      1.060231107635555      0.512651372066791
H       2.120859544066763     -0.791397335201035      1.120859898722640
H       1.780186473370395      1.483758004608633     -0.276131684773234
H       0.427262609626806      2.441406746922665      1.956263248562916
H      -0.633945499993543      2.494796116117286      0.577979380287889
C      -0.874516911096602     -0.097811789690150     -0.996805348520325
C      -1.876979769113245      0.040666463718995     -0.048872997135592
H      -2.509406630411280      0.957661589380301     -0.050863182561844
H      -2.390214409333553     -0.815409731417834      0.436249454411806
C      -0.088304643790240     -1.353993152518164     -1.028837525231533
H      -0.562187881585638      0.596066380032279     -1.831108185364224
O      -0.244458287259168     -2.275818088257441     -0.228781110333932
C       1.112348604508814     -1.314633215882339     -2.001099156039805
H       2.003178322897670     -0.869451974901780     -1.573122763916993
H       0.868662955095594     -0.835343665484944     -2.961335492464626
H       1.390728597746836     -2.383575940090757     -2.060894061139486
22

C      -0.018975780706443      1.747300265985250      1.205522846146857
C      -0.674701743388964      0.670872559289062      1.969026971208226
C       0.250928843584375     -0.311779972225818      2.122364058373347
H      -1.600232695235241      0.788171963712648      2.599942843774967
C       1.305616879752453     -0.082628000992001      1.206432732300266
H       0.131742415307371     -1.306463719697886      2.628523199429070
C       1.100033907455298      1.046829013496626      0.523830971347631
H       2.135028734757374     -0.800790078475595      0.984055573843421
H       1.786114095430088      1.468691926691092     -0.190684325879124
H       0.454401021256445      2.437075477365599      1.934763195077552
H      -0.616628060612968      2.290713186696282      0.495466949540202
C      -0.901731158024403     -0.165667049475872     -0.981801551133890
C      -1.930599608957070      0.027142378038165     -0.123259639019211
H      -2.500977752619566      0.945454253677462     -0.138428768094677
H      -2.244667092428547     -0.818650150065878      0.483840034801222
C      -0.066137406141071     -1.370413116879145     -1.029175257690206
H      -0.544267654377763      0.626741650764280     -1.600270921407217
O      -0.314297242431397     -2.257076013024654     -0.229484834439891
C       1.118519821244351     -1.304985185356391     -1.977418415548039
H       2.067630898555712     -0.884795382273504     -1.509672621052005
H       1.045458116886048     -0.753365912014921     -2.918104518422483
H       1.336886512556673     -2.347508425903858     -2.154814041861496
