22

C      -0.054358877019910      1.818292036192819      0.978000695886790
C      -0.885130400871850      0.756600608199369      1.646415371213540
C      -0.008396110223220     -0.265458063823011      2.008732505439470
H      -1.784426625062059      0.987833627452589      2.204802340157830
C       1.193718366157370     -0.113870754970751      1.298685222592910
H      -0.262245946600830     -1.114433596881321      2.628290239716101
C       1.120422421893490      1.020418721708359      0.528661857645340
H       1.993221352956530     -0.841390399401481      1.280148592263270
H       1.895057938714940      1.397305068361709     -0.125190678932640
H       0.287890694966570      2.516734345025499      1.757598249308760
H      -0.555458155466170      2.403955993682249      0.209272238163790
C      -0.700163294135400     -0.034993348405441     -1.014957068363840
C      -1.714487045356380      0.033886352619679     -0.075679580887860
H      -2.449619693011539      0.827769164010049     -0.151553653547790
H      -2.075477670016270     -0.904102434507051      0.329249252262580
C       0.037995126778830     -1.276911931387211     -1.164452438837120
H      -0.512837261450720      0.773727152348119     -1.710901131945380
O      -0.108000216134870     -2.202618371901111     -0.379100983467770
C       0.980229405324210     -1.405757663678131     -2.335145058936740
H       1.363078896085740     -0.442711049025371     -2.678088653987070
H       0.434233439777440     -1.866991205201431     -3.164376608054930
H       1.804753652694100     -2.067284250418121     -2.070410707689250
22

C      -0.055790532543668      1.867720864161687      0.961492286227393
C      -0.839212227224048      0.777099715947929      1.739159132342434
C       0.055636968845019     -0.335487733464891      1.952231444572720
H      -1.648394423333617      0.962983096271937      2.330915871110356
C       1.270633363272377     -0.144428148556875      1.253338388539561
H      -0.204863361768559     -1.214691325130419      2.561911189921631
C       1.189137163999499      1.046910754330353      0.585899576071265
H       2.160634468301623     -0.842923389695544      1.274326657308730
H       2.017830431340443      1.480073942665222     -0.091027330283197
H       0.215637335662344      2.771695024978048      1.577104060607218
H      -0.571483557952495      2.288340484861126      0.100955637536514
C      -0.699287386979381     -0.052396393241095     -0.980764996465115
C      -1.769788535502917     -0.006572613193315      0.011117647115950
H      -2.451362202787237      0.731977246651875     -0.162557338235690
H      -2.293350797679261     -0.951789049546810      0.234918201411279
C       0.019565913798124     -1.285307603753697     -1.176578456676678
H      -0.494279550856336      0.848860734860873     -1.633943862947534
O      -0.162429863030953     -2.206474982780710     -0.375674866207371
C       1.018851376549922     -1.379402055559588     -2.313957590679359
H       1.199623726951277     -0.431547089737112     -2.834210359558542
H       0.725631787365972     -2.160502162202599     -3.026826895894458
H       1.936600851355848     -1.772528329784604     -1.840666314951407
22

C      -0.005563947420050      1.782190638821916      0.968822897951034
C      -0.716206252713779      0.729310595036026      1.748528513826866
C       0.080846857976376     -0.332978941428747      1.962828819496082
H      -1.581171611962710      0.918833535320984      2.328122333132729
C       1.289470103354163     -0.089574908983200      1.242875258148381
H      -0.157651305245511     -1.257330779648831      2.488655958946050
C       1.215313705098402      1.117336430310609      0.589657378155425
H       2.087205804209338     -0.858532613019658      1.049329056004528
H       2.109234053522055      1.547243277208770      0.002975513164100
H       0.226546836747230      2.621480003520846      1.688433027585292
H      -0.557287180267662      2.185470462484810      0.115642595298032
C      -0.776407734041688     -0.057260035491246     -0.925782270508875
C      -1.755022868791971     -0.004928453060423     -0.026170222043993
H      -2.436169011982400      0.786797889260502      0.139505539347807
H      -1.862489684007230     -0.933307499300048      0.563539781217946
C      -0.012568755776492     -1.290663692739568     -1.129807444011549
H      -0.537366692108971      0.834979108320536     -1.602047244247057
O      -0.218020424670634     -2.238741882982225     -0.409171133633978
C       1.059287199742012     -1.371979694550456     -2.252766599887244
H       1.007671449223823     -0.526632517156779     -2.955072486429212
H       0.970200884068098     -2.327764732989267     -2.814606525733542
H       2.083668861555942     -1.239735908309117     -1.816335538771435
22

C       0.023916945289690      1.787718649399540      1.044362678712895
C      -0.680091641520513      0.722744975638457      1.843034155287261
C       0.212810746059061     -0.310782391630179      2.026204946699987
H      -1.734545122680501      0.955497063671932      2.282735781126590
C       1.373277349264051     -0.102113326712427      1.185273726564879
H      -0.029306213860375     -1.263288760896385      2.491949848418789
C       1.302705788847983      1.110018571354246      0.567694295447152
H       2.182750736778058     -0.817896767655328      1.115691103358534
H       2.006460118755843      1.599672880201712     -0.080020161388500
H       0.314432444305397      2.608934911236148      1.745347324073895
H      -0.627155300127306      2.378664645194358      0.351900739837393
C      -0.834546910459355     -0.052158733352446     -1.032656284449072
C      -1.775017410239162     -0.053364534372373     -0.014489355038732
H      -2.594192564586949      0.767422171892234      0.057722984919986
H      -2.045899073514743     -0.988562791918467      0.462791964805876
C      -0.033112222823937     -1.301579810887926     -1.145378997262345
H      -0.554351579211979      0.797851515494314     -1.663604046391356
O      -0.259467721961209     -2.305915598708043     -0.440375473306997
C       1.052899284904403     -1.294181796371506     -2.141642755807172
H       0.768235083124090     -0.730532900776802     -3.073434105828524
H       1.303862067433644     -2.381063251135453     -2.373826385188297
H       1.984242844426352     -0.944897813798414     -1.627287712354716
22

C       0.111191001217491      1.854533004295973      1.147055016848644
C      -0.578519730146766      0.753678027956121      1.939722030040038
C       0.306470109421155     -0.288852228927366      2.037733159966216
H      -1.484669594032433      0.776114836789487      2.695443448537261
C       1.456311491734668     -0.083965087105332      1.188569792144542
H       0.227685401853950     -1.110374017242586      2.764030548375517
C       1.287540365558633      1.110341028432051      0.554881861073719
H       2.222066077549912     -0.800536947716306      1.078347775267521
H       1.927215728424582      1.471505803602520     -0.163495014103029
H       0.551698787648642      2.568168362248860      1.881309108956804
H      -0.474700484841523      2.346752936301155      0.322761373011968
C      -0.908977522339189     -0.138866745245810     -1.050586053753874
C      -1.852093611424459     -0.111273771547891     -0.094588879756763
H      -2.561469034166024      0.829663372155838     -0.072404883288041
H      -2.123300715167519     -1.088550077814822      0.319969013207103
C      -0.117890230169814     -1.333642003128245     -1.150123046500602
H      -0.828068872259553      0.697142120132332     -1.664470505332290
O      -0.291803918085860     -2.333411906099820     -0.497717333254916
C       1.097849771426447     -1.268394063514843     -2.052535680249043
H       0.827225006867231     -0.912406526342378     -3.103226574124134
H       1.575855677909592     -2.274488679262709     -2.127026538788950
H       1.762134664503077     -0.435997392235817     -1.747373281350307
22

C       0.203471533256509      1.842635606708723      1.211195686978689
C      -0.375287860741616      0.814073851419006      2.093945670060635
C       0.393144159027747     -0.272942112308608      2.121788379883300
H      -1.235075247081600      1.079632924164940      2.666176427079899
C       1.496647043096391     -0.064028472638755      1.193040188991835
H       0.239355066313336     -1.189004003194648      2.703440271562795
C       1.301694882600647      1.125715890087276      0.550795147448710
H       2.254004738577410     -0.797341330138179      0.846905599527890
H       1.884836691073752      1.545298985436222     -0.276310102296722
H       0.608147625270988      2.686816505408750      1.812703031475497
H      -0.510239286696875      2.392271836046060      0.602849115402043
C      -1.019445112907817     -0.185890808469205     -1.082714045214323
C      -2.035201846545619     -0.174841974530578     -0.201918488878837
H      -2.676629649564834      0.668410576817864      0.079193233377993
H      -2.103910817078824     -0.935470140507245      0.615339434665575
C      -0.061602610839534     -1.410852804681044     -1.161795688245789
H      -0.691739914362924      0.551320411208040     -1.754238378139862
O      -0.368737976740851     -2.374623680491671     -0.526962222403638
C       1.130608857595042     -1.210506314614858     -2.051172923332409
H       0.805826834085647     -1.196389588958297     -3.109838811450750
H       1.913326493891151     -1.955631395700223     -1.870879145902527
H       1.596984935178474     -0.275914407097316     -1.707369540602405
22

C       0.247894623641506      1.878096979848015      1.278356655161902
C      -0.237688834125492      0.928932972372800      2.314759899512883
C       0.506631115236233     -0.251950556762496      2.208177959105492
H      -1.081266818678638      1.025480683588982      2.846119915575585
C       1.515001922088725     -0.061296017798853      1.123632238225969
H       0.222717611383860     -1.234694276461727      2.603214409052652
C       1.365541905934470      1.128731426455472      0.549228812136354
H       2.284613074862645     -0.878128879642019      0.983618147991480
H       2.051824159639994      1.602648254954359     -0.261891413221240
H       0.731301547217416      2.699651437262478      1.839663054805125
H      -0.559713421547020      2.195353530218581      0.623294123293661
C      -1.069976652169306     -0.266140451201604     -1.124593117388061
C      -2.113907285006556     -0.209305563021642     -0.267821604893361
H      -2.819644600945475      0.516808565267887     -0.385874187861619
H      -2.312348813168418     -1.157809501889101      0.277152732699012
C      -0.126137712681724     -1.384055571006372     -1.140396217999117
H      -0.996051586174508      0.676724291650746     -1.719787018840938
O      -0.395951268637426     -2.462180279542400     -0.559920026522375
C       1.164290755164133     -1.181835445500225     -2.021943772500271
H       0.934873273250558     -1.397351561316814     -3.052240121609352
H       1.969271342412162     -1.843153885166056     -1.732615900903818
H       1.459566476928978     -0.127651570308263     -2.079316788014892
22

C       0.357444378864751      1.910013670500766      1.346279157055057
C      -0.083457578345192      0.932423560105198      2.449726283444909
C       0.570377636983719     -0.181123371464268      2.209965912532933
H      -0.744887417449415      1.117375847204162      3.327441844629419
C       1.495630251141022     -0.091351854429425      1.149479624622709
H       0.558662880652453     -1.000093752680201      2.931830300626624
C       1.390170523783513      1.155232694529283      0.607566184048033
H       2.189105576671893     -0.854792351193896      0.780651801529179
H       2.027384109552254      1.607258423489812     -0.211354773284681
H       0.611013972755215      2.930677854303763      1.589690681611957
H      -0.491279881532654      2.073737929265381      0.635501390242478
C      -1.123329819925889     -0.270420187792243     -1.135446753344895
C      -2.224700767542318     -0.333605442730955     -0.404178927353283
H      -2.811712869391120      0.599151104634391     -0.300197239382029
H      -2.548572021373651     -1.128658311100491      0.250991655894869
C      -0.150055832890141     -1.413121970513132     -1.191315911033321
H      -0.750897908016680      0.543573678444130     -1.868885533583176
O      -0.359338594370291     -2.448775814129027     -0.638319287006472
C       1.097697177563640     -1.201407410521376     -1.932452669553060
H       0.917650429516314     -1.761198011659757     -2.859912813270214
H       1.908851158965589     -1.709446281667762     -1.444609491771555
H       1.412142994986819     -0.163420437442761     -2.107103435110952
22

C       0.373569240094095      1.934806342563318      1.408819823934277
C       0.094508676188388      1.034180453316365      2.523887590636583
C       0.659410736698668     -0.216669422486115      2.366782926245004
H      -0.549927663678361      1.496599651939070      3.440111068308820
C       1.515259552589080     -0.101035159957686      1.122461350011349
H       0.638102868233963     -1.135116058926759      2.953886237988380
C       1.447872212454655      1.189548050195237      0.666581536407428
H       2.140640335493646     -0.888213542712707      0.812843688465224
H       1.913250987840665      1.548091364664217     -0.209060411082520
H       0.545778012978688      2.955827902321497      1.696843902146506
H      -0.528504448747208      1.812332398625043      0.740207092028248
C      -1.169402592590269     -0.319498632444945     -1.187060680408556
C      -2.338983969420060     -0.370742049349888     -0.535349670513398
H      -2.960325364656034      0.591414509223830     -0.230567797067571
H      -2.500474693054660     -1.358208263586502     -0.122894987019951
C      -0.201249474424873     -1.393731261734491     -1.194736742206811
H      -0.953708646902631      0.723184809782842     -1.586060626571153
O      -0.365580640227335     -2.472787809708386     -0.669027135235367
C       1.130663507186493     -1.244523826723526     -1.935291938570383
H       1.256923283675070     -1.893782106446471     -2.840641091052488
H       1.848531367187157     -1.548353241042944     -1.167020715533848
H       1.249629927906947     -0.204319389742329     -2.263866710781266
22

C       0.418148258053797      1.910349932588112      1.447788562463454
C       0.255954265495169      1.080362082117456      2.682695064193952
C       0.782805459013044     -0.130819493535692      2.424585759593469
H      -0.538584263173287      1.236001322997696      3.510861271258622
C       1.517677625717587     -0.062848114939435      1.219783231178391
H       0.515011121230062     -0.959290379435261      3.085830888006371
C       1.472573054760187      1.165060613554048      0.680218412106468
H       2.115575900197917     -0.858841367159128      0.794483892281841
H       1.921549268480338      1.498289966189809     -0.191926169982917
H       0.525656545540967      3.007259520006829      1.581918081795723
H      -0.535391682317622      1.845324563979530      0.844707178300932
C      -1.222265881930284     -0.252887949924513     -1.233422244496193
C      -2.404243818720466     -0.479887993532015     -0.580018951920158
H      -3.190420285927275      0.357077447114535     -0.480098512452804
H      -2.890166478297768     -1.467357439545935     -0.508940601925829
C      -0.200629110662781     -1.467212333323238     -1.275692454213337
H      -0.824187497391592      0.603135640409521     -1.714144935032453
O      -0.430790278471146     -2.500931384649296     -0.641596010528356
C       1.155506121745504     -1.208301549171297     -1.971974323297193
H       1.303859321354895     -2.104795138585964     -2.628686360076181
H       2.025346856973402     -1.298922840319746     -1.272932409718833
H       1.351637786895252     -0.263168714926766     -2.508199120609642
22

C       0.482321279525625      1.974123928731368      1.507081980416453
C       0.294313336490639      1.138180948857322      2.791171026644933
C       0.858312544932782     -0.060674716777637      2.540150968107079
H      -0.257743052700568      1.428438870281250      3.597688569009476
C       1.608653330547800     -0.103788441261160      1.273725591915885
H       1.000288998108395     -0.953645994711387      3.150676189700625
C       1.416269487213899      1.140737076479089      0.693220156800523
H       2.190473682148782     -1.012601256872378      0.872990120814497
H       1.908193633066636      1.494294225256913     -0.256154427168772
H       0.769128781296648      3.070733660345559      1.489347804711533
H      -0.486218439495833      1.802263749214553      0.957775024026983
C      -1.229369322399266     -0.404913083410495     -1.235301240378816
C      -2.435152650169486     -0.571772053178353     -0.754353965593396
H      -3.050994321435795      0.239682951320732     -0.518222418641182
H      -2.715024416747422     -1.642282254520496     -0.463252528458860
C      -0.187437411044537     -1.430633149432259     -1.262223062643310
H      -1.140086393827767      0.550411328210324     -1.612604782559139
O      -0.461739745382340     -2.434305146823348     -0.662672750388854
C       1.104640833356950     -1.239613409391915     -2.010627565436706
H       1.347359646995483     -2.125876290084066     -2.605078651894546
H       1.895656777844036     -1.008547777862771     -1.244276108914489
H       0.950937494606751     -0.424534947636220     -2.751050701432199
