22

C      -0.054358877019910      1.818292036192819      0.978000695886790
C      -0.885130400871850      0.756600608199369      1.646415371213540
C      -0.008396110223220     -0.265458063823011      2.008732505439470
H      -1.784426625062059      0.987833627452589      2.204802340157830
C       1.193718366157370     -0.113870754970751      1.298685222592910
H      -0.262245946600830     -1.114433596881321      2.628290239716101
C       1.120422421893490      1.020418721708359      0.528661857645340
H       1.993221352956530     -0.841390399401481      1.280148592263270
H       1.895057938714940      1.397305068361709     -0.125190678932640
H       0.287890694966570      2.516734345025499      1.757598249308760
H      -0.555458155466170      2.403955993682249      0.209272238163790
C      -0.700163294135400     -0.034993348405441     -1.014957068363840
C      -1.714487045356380      0.033886352619679     -0.075679580887860
H      -2.449619693011539      0.827769164010049     -0.151553653547790
H      -2.075477670016270     -0.904102434507051      0.329249252262580
C       0.037995126778830     -1.276911931387211     -1.164452438837120
H      -0.512837261450720      0.773727152348119     -1.710901131945380
O      -0.108000216134870     -2.202618371901111     -0.379100983467770
C       0.980229405324210     -1.405757663678131     -2.335145058936740
H       1.363078896085740     -0.442711049025371     -2.678088653987070
H       0.434233439777440     -1.866991205201431     -3.164376608054930
H       1.804753652694100     -2.067284250418121     -2.070410707689250
22

C      -0.080099105996754      1.838938060299965      1.045020209158021
C      -0.930771657476549      0.720699415104983      1.657329543486546
C      -0.017459393337096     -0.291049981023323      2.055303893941935
H      -1.791168321719689      0.938824015668327      2.290993128341651
C       1.190562302021882     -0.063622611207467      1.311020068199777
H      -0.263843860867313     -1.210107477512762      2.575607240443884
C       1.103755342086334      1.076946482658974      0.560063840592233
H       1.934343352403578     -0.907778511411163      1.280012759028448
H       1.814598709464936      1.417319664465556     -0.185404037454701
H       0.165619977171175      2.636730911811059      1.770202232285861
H      -0.696257496112875      2.307506388532877      0.212077533451990
C      -0.733295945293353     -0.028025761842975     -1.102688244819915
C      -1.685658205221910      0.126442770799004     -0.044515228082298
H      -2.490111762412787      0.845189203588332     -0.226962517675710
H      -1.987911092013125     -0.837123946923456      0.399950346648947
C       0.054389135198055     -1.270632099844150     -1.146583167741678
H      -0.581609992778715      0.698786792326355     -1.938690240898125
O      -0.089333840369844     -2.224078127741153     -0.390355044310532
C       0.996879748966098     -1.382162275647422     -2.362238714103932
H       1.453833278402391     -0.467167599127677     -2.829230569025421
H       0.504492118644661     -1.934645459460335     -3.214507930742487
H       1.794659406989509     -1.991345515523916     -1.993978331051393
22

C      -0.142406051148326      1.860709843384812      1.084250601803803
C      -0.952286176877786      0.690855325881429      1.662579462239978
C      -0.005680629875943     -0.289943658542894      2.064574579459273
H      -1.853178880576277      0.942781126596881      2.285978273702451
C       1.169146908118716     -0.071917668528514      1.347755891844524
H      -0.190970414055471     -1.276015490030116      2.564802126205849
C       1.071121108003332      1.128376398525701      0.592876592184532
H       1.958684613639853     -0.787815173658854      1.212424254870779
H       1.750784299474792      1.514722314835572     -0.248196923730923
H       0.086174428269722      2.668387842024930      1.820839727514091
H      -0.618145441224846      2.437052792531952      0.305914272013493
C      -0.760935899351843     -0.028184301165028     -1.139292831813890
C      -1.639990841303044      0.190593340558346     -0.016488299687138
H      -2.447453739192024      0.905765220518009     -0.230503531495838
H      -2.044943984061705     -0.760370088763820      0.365726008316312
C       0.055921622502783     -1.252426984737007     -1.180323528053117
H      -0.796224134865372      0.617640481548578     -2.007967859546139
O      -0.072470199135615     -2.226338380547663     -0.403608326828947
C       1.024810249971329     -1.375771261616936     -2.373121788449028
H       1.386459951212847     -0.437270734985715     -2.748351155245334
H       0.537599494451919     -1.949872873016746     -3.139122725613768
H       1.926206291929683     -2.030045658893856     -2.004286875474272
22

C      -0.197887993251564      1.891006642176146      1.108953289480761
C      -0.977698552432015      0.683624492377304      1.644324157763737
C      -0.003446005052144     -0.294634697586582      2.055383579273945
H      -1.867993138404468      0.864836203332935      2.199637141837464
C       1.158621151823678     -0.050564544038043      1.326501068669276
H      -0.160362128332104     -1.179094916377130      2.645602055449666
C       1.022170820008470      1.159777867602515      0.642316949017956
H       2.016739393474417     -0.695129879327778      1.231137408123590
H       1.689645356758937      1.540291086797477     -0.072939579820544
H       0.098756165400224      2.515327343701921      1.954686124710252
H      -0.575336606728928      2.588429516229903      0.312718751377232
C      -0.773876081274808     -0.043768265714285     -1.114344023207189
C      -1.599357612371324      0.213705209006600      0.019143964924522
H      -2.314005999722757      1.027189697283174     -0.155167104010315
H      -2.106748265007536     -0.720864020215459      0.272803461338861
C       0.050851988725152     -1.264302760726531     -1.228306227314482
H      -0.972398071041802      0.553029284402167     -2.021968388677715
O      -0.060399867855174     -2.180590417123960     -0.433426833093889
C       1.064407578105094     -1.387408260199343     -2.337888324689749
H       1.328599230366982     -0.335780399003444     -2.672635401307895
H       0.541978846491220     -1.947417670165707     -3.153575203043629
H       1.909549566331345     -1.954476771225065     -2.114629408282147
22

C      -0.223023520591325      1.909274936402076      1.138451568638456
C      -1.009772339999974      0.672756374449753      1.578707932907159
C      -0.021671011162046     -0.297513327964875      2.030542076407598
H      -1.954528326298175      0.737346432140331      2.159210466279553
C       1.157189798831275     -0.011898222651646      1.290321989592814
H      -0.210543151852003     -1.071431142869466      2.762419204305831
C       0.974210220234953      1.192812042410228      0.681091484878342
H       2.060879284998055     -0.667086753408844      1.293653997309075
H       1.780061705083792      1.656840453327698      0.075313696136273
H       0.120335867776501      2.367217023694400      2.104792731233589
H      -0.670117544923113      2.611701293119361      0.410871872095148
C      -0.754544836882385     -0.061470071032977     -1.086605517794584
C      -1.587057350543954      0.212595903005135      0.085160684325728
H      -2.186373336924945      1.128556322178059     -0.107984578125773
H      -2.167138499733877     -0.719785725338425      0.239936218014009
C       0.042339447640637     -1.268353087294487     -1.260250269623552
H      -0.983278169333538      0.508693704731299     -1.991611101290882
O      -0.057565128918055     -2.137423646510007     -0.445209461877479
C       1.079260903266724     -1.362933856341515     -2.322717550609230
H       1.358935893691539     -0.367359973652302     -2.643044418059270
H       0.639494432225179     -1.835487244235008     -3.225348287120537
H       1.980216455036568     -1.956343207637472     -2.041982450150108
22

C      -0.227723242813633      1.912572899410914      1.196586890799139
C      -1.059839514790547      0.620589276715101      1.477907417229146
C      -0.034575443192840     -0.282172520050427      1.990757254462391
H      -1.967994857331529      0.742493984876409      2.107448712564726
C       1.127541270366209     -0.005276026151330      1.294166536247734
H      -0.192065764019049     -1.017479361811788      2.799415404842634
C       0.968152290037162      1.250590727548637      0.664478281945663
H       2.036476933297902     -0.590687672376705      1.243377063688320
H       1.820446368426272      1.834927527090410      0.233951389977119
H       0.048063847293872      2.426480975840749      2.154469697487833
H      -0.774364248950676      2.638757561755235      0.618870221871988
C      -0.722325125271616     -0.063151599934839     -1.059315593956761
C      -1.595395419763298      0.206426406818075      0.157288452143396
H      -2.193390915645710      1.078063931883714     -0.176859588247181
H      -2.203190569421665     -0.689944340711470      0.335322048182906
C       0.043767451023140     -1.236248332811814     -1.262475236889890
H      -0.915270573865541      0.526690514610072     -1.938920115694966
O      -0.068861625281939     -2.139363161160145     -0.423520756067567
C       1.097153363307312     -1.315912123611258     -2.350518652838816
H       1.508167676862678     -0.311245014765826     -2.611191058422344
H       0.764662062141680     -1.762723862567952     -3.284312679235652
H       1.933000640613437     -1.942285449435343     -1.847042943054586
22

C      -0.244388166321510      1.911273675732595      1.261995347379686
C      -1.084801521184932      0.579057344965615      1.432328473979742
C      -0.057111422944313     -0.266904284522065      1.962616639903035
H      -1.923807963741608      0.823295521416960      2.080597676809093
C       1.102976148079523      0.030109230108584      1.280085394081803
H      -0.146785610766583     -1.045240561993702      2.698336931899556
C       0.988616810852945      1.305256965420296      0.644624114276860
H       1.974740073214479     -0.602292894162695      1.165660028190416
H       1.781288008473646      1.904531593569648      0.306657351598353
H      -0.032130554783177      2.386842762283091      2.218095196289866
H      -0.801517681431545      2.733452194692975      0.715531680337387
C      -0.715134612348554     -0.024745648916992     -1.008270752536939
C      -1.628986166273177      0.186289815972988      0.142687324289636
H      -2.355000261431507      0.925316838248557     -0.261308676790487
H      -2.234304419875977     -0.711021902827407      0.400305230087141
C       0.065970225816681     -1.237962928372387     -1.220255969972428
H      -0.860002784897574      0.675258222711929     -1.861515854141680
O      -0.082492064170322     -2.145520538186484     -0.413727278004035
C       1.133313152672820     -1.263359679697390     -2.353944060192454
H       1.639316351707946     -0.281066366344789     -2.496374855766953
H       0.847059991690136     -1.746876169694294     -3.315360735967932
H       1.835183840871422     -1.892606636351434     -1.928118737545796
22

C      -0.266951566176038      1.904769220524335      1.288792999402363
C      -1.087208370123892      0.610683228317808      1.456808756476469
C      -0.067209060232687     -0.274768616387772      1.949176570750914
H      -1.961832009472744      0.829352778072898      2.134986397568156
C       1.102178477972620      0.094964614502716      1.230269959599142
H      -0.196365813311186     -1.143039926405249      2.587557510207555
C       0.981472777611203      1.342254486957240      0.663676325583912
H       1.909855046987957     -0.673516914991398      1.145612110105661
H       1.837100213562224      1.943030829634993      0.191811011352885
H      -0.045774293549827      2.199857195198200      2.346509256301884
H      -0.717782401800221      2.714198497804644      0.731821668446719
C      -0.692546873096582      0.018723140433816     -0.962329772684971
C      -1.710902752161505      0.141995060822966      0.058875089174049
H      -2.501532456954028      0.850131852237388     -0.243630014337144
H      -2.172208002993992     -0.827879824018561      0.335080115858675
C       0.087622746024605     -1.209736073785527     -1.177355914065922
H      -0.692330694350562      0.803075581376243     -1.705514640168887
O      -0.094188841385475     -2.158339968763459     -0.426990839878118
C       1.159396952836855     -1.223847650555922     -2.300932457121198
H       1.615942454126476     -0.256256080050303     -2.426955742002242
H       0.755248196115402     -1.579427090222683     -3.278128849075769
H       1.961108874064249     -2.027695828311439     -2.046846762604461
22

C      -0.263507189992108      1.905978187441262      1.291747694452402
C      -1.124941146526110      0.662297979960979      1.484921716956424
C      -0.060368560437760     -0.279723441142130      1.911292753732277
H      -1.986299001659031      0.710047185739177      2.169777348002922
C       1.106549623158118      0.099215590532881      1.205034628433088
H      -0.261649192624474     -1.243799654459042      2.404577778656775
C       0.961264415694505      1.386649883281722      0.697425708779991
H       1.956286345004957     -0.543290481244384      1.002875561884470
H       1.667423408713061      1.890036491840434      0.040052711909866
H      -0.068791685402139      2.167840703754119      2.377873098976456
H      -0.726968892610563      2.720852935334912      0.739739834019353
C      -0.646351379218760      0.052228464514081     -0.937480686411204
C      -1.786593267038060      0.096209659646761      0.013143542524286
H      -2.545490769564930      0.852121586612906     -0.210719921682786
H      -2.077287776605115     -0.971461154675054      0.139805135414605
C       0.118090606463865     -1.167519518067906     -1.131763542346325
H      -0.410251089198945      0.902110069954840     -1.610887149813188
O      -0.103602332515054     -2.171492245928617     -0.450571936265977
C       1.161512467561734     -1.210327506286658     -2.214117817167052
H       1.587233192748562     -0.167300197710817     -2.362554818050067
H       0.578574693851882     -1.286904759878239     -3.153025107941651
H       1.940463923217043     -1.986805874166607     -2.135944394166871
22

C      -0.294393235536148      1.932689640784504      1.298800611356935
C      -1.162637161010517      0.652693948694683      1.503887817928571
C      -0.062040056120995     -0.284457240570972      1.841370107828175
H      -1.977310898952670      0.685542790767323      2.230308351893570
C       1.123082509723621      0.079446892861286      1.197045379229623
H      -0.260516708926642     -1.276968704727490      2.232618827753834
C       0.938417772982913      1.399656548892833      0.711822250254821
H       2.031749399781013     -0.450088294852113      0.932245359763523
H       1.533935125337289      1.908481483626691     -0.009537369007131
H      -0.095729217722257      2.332416045046275      2.297082383386988
H      -0.830928759297868      2.795719436056083      0.800138208072951
C      -0.621786249115492      0.102833132563459     -0.929753477743290
C      -1.785940255576040      0.066775226679906     -0.010917123295370
H      -2.586367518368926      0.798440501639531     -0.228079361146111
H      -2.149139498014640     -0.945567606233620      0.115300326985280
C       0.144865257769798     -1.154462705763835     -1.071435148518547
H      -0.278458791699385      0.992127323037108     -1.469615552546050
O      -0.106199670360141     -2.172944332040966     -0.472045145250602
C       1.146102132693247     -1.147251616957194     -2.154989413757522
H       1.711017750574557     -0.233109338508128     -2.178093044515655
H       0.503036751648709     -1.166555581358612     -3.076884253084544
H       1.809295298083885     -1.952566091204564     -2.076299288298084
22

C      -0.373109628054998      1.967632618671853      1.308488860399409
C      -1.166396391841301      0.610248659027222      1.502624066594830
C      -0.081573676064268     -0.316442961761534      1.756369444207877
H      -1.983424739469233      0.758937089790967      2.274831335379435
C       1.137560550447904      0.109902333101664      1.184800837593231
H      -0.217753329167171     -1.305419462879029      2.155309011877654
C       0.901756655352254      1.379801065923282      0.710784479534683
H       2.056451566138429     -0.534533055784971      1.063663980705212
H       1.623441363450330      1.990043754863106      0.041485073464721
H      -0.073457625034812      2.392199373598705      2.300156528699083
H      -0.849592625521474      2.767376764163459      0.779028374138485
C      -0.614943046178295      0.127285893874398     -0.903223885610800
C      -1.727856405905422      0.091088323023567     -0.014060141163523
H      -2.566198608345678      0.732585126694688     -0.322729601123714
H      -2.171827371619347     -0.892843944908004      0.223713789507580
C       0.136385757366813     -1.106546205375736     -1.027578861454150
H      -0.409213000448229      1.069267489189640     -1.395255060946684
O      -0.114993785978841     -2.181556106745538     -0.466292598234055
C       1.141725830866060     -1.068967378592520     -2.121394337113268
H       1.887194623132852     -0.233558488954567     -2.052444611132552
H       0.640855885369716     -1.139779188623982     -3.076097846558273
H       1.725205792415178     -2.096023111158693     -2.047091096637710
