22

C      -0.054358877019910      1.818292036192819      0.978000695886790
C      -0.885130400871850      0.756600608199369      1.646415371213540
C      -0.008396110223220     -0.265458063823011      2.008732505439470
H      -1.784426625062059      0.987833627452589      2.204802340157830
C       1.193718366157370     -0.113870754970751      1.298685222592910
H      -0.262245946600830     -1.114433596881321      2.628290239716101
C       1.120422421893490      1.020418721708359      0.528661857645340
H       1.993221352956530     -0.841390399401481      1.280148592263270
H       1.895057938714940      1.397305068361709     -0.125190678932640
H       0.287890694966570      2.516734345025499      1.757598249308760
H      -0.555458155466170      2.403955993682249      0.209272238163790
C      -0.700163294135400     -0.034993348405441     -1.014957068363840
C      -1.714487045356380      0.033886352619679     -0.075679580887860
H      -2.449619693011539      0.827769164010049     -0.151553653547790
H      -2.075477670016270     -0.904102434507051      0.329249252262580
C       0.037995126778830     -1.276911931387211     -1.164452438837120
H      -0.512837261450720      0.773727152348119     -1.710901131945380
O      -0.108000216134870     -2.202618371901111     -0.379100983467770
C       0.980229405324210     -1.405757663678131     -2.335145058936740
H       1.363078896085740     -0.442711049025371     -2.678088653987070
H       0.434233439777440     -1.866991205201431     -3.164376608054930
H       1.804753652694100     -2.067284250418121     -2.070410707689250
22

C      -0.043393356827295      1.758607304749626      0.950617600058244
C      -0.872856121554741      0.764806789135960      1.657919653029029
C       0.034674621886978     -0.308070950614204      1.984199013433583
H      -1.850841620075510      1.046242837191509      2.102082338080153
C       1.231817319378426     -0.122126265311595      1.259710975297177
H      -0.150904991182936     -1.170832973067386      2.635500720729282
C       1.124955596322168      1.032933860388804      0.504680184841534
H       2.002328249674763     -0.904211168461968      1.277192057649514
H       1.883154657747849      1.430958016808698     -0.169100897006513
H       0.461012023395431      2.429565283033212      1.735103790228043
H      -0.670718625238146      2.382354415925169      0.291970266038397
C      -0.661236555621065     -0.027280948054313     -0.976757848529099
C      -1.688435812810950      0.045587248064927     -0.084612269284155
H      -2.433531050448449      0.881710759820066     -0.268934966094958
H      -2.124838977982328     -0.927412167299141      0.211853286574872
C       0.050045407964468     -1.274477158447938     -1.162086371390399
H      -0.457228955286642      0.707036493429538     -1.794746215163975
O      -0.111510219791157     -2.201275941977047     -0.443022238066524
C       0.934805514339411     -1.379398153539562     -2.335623087645168
H       1.433521175256433     -0.474526677516780     -2.733832774132533
H       0.394304351117663     -1.833990056545705     -3.183124905122006
H       1.800445729196860     -1.999100352052274     -2.030734601742598
22

C      -0.035751871466574      1.737973326307821      0.946711004634569
C      -0.851312275840087      0.737688749544492      1.663024192985979
C       0.067021726536414     -0.326693300008169      1.966693616283865
H      -1.803851809035324      1.025085459414486      2.084171845367193
C       1.262269284074679     -0.134045829844893      1.236852611026017
H      -0.075676582600245     -1.197986556415792      2.606028993859105
C       1.138507570853552      1.022359574880393      0.453322149513788
H       2.049681907991825     -0.883214476888274      1.230981500143447
H       1.874138611745674      1.474537102616079     -0.196002333858041
H       0.470010677511252      2.361000462364563      1.654378212062454
H      -0.632681251663068      2.392954923879878      0.304816858019031
C      -0.603669733360733     -0.017808330157580     -0.974065508564943
C      -1.691762991203647      0.067276013056206     -0.085243317626196
H      -2.359512643770194      0.847583021458328     -0.295795987707429
H      -2.128488346870683     -0.885426666120411      0.172468371771815
C       0.048367276538892     -1.240084801459783     -1.180013169650644
H      -0.490878263161543      0.742182382966477     -1.766985644684686
O      -0.119569132903844     -2.236668425578598     -0.472195192833450
C       0.924259202394572     -1.356790077909845     -2.360798039006389
H       1.398061906848782     -0.432484251035878     -2.741922008564679
H       0.386320452092482     -1.841716110746500     -3.180711145042038
H       1.739551898396128     -2.032624335644463     -2.066075899398500
22

C      -0.024566407184296      1.746428212907527      0.954148964341603
C      -0.813782435069466      0.680584256109000      1.647947636886729
C       0.094237246399861     -0.326918919639616      1.950872694831101
H      -1.735684481147293      0.933151397029816      2.225698154430409
C       1.279526154032087     -0.141315696358043      1.219051827791044
H      -0.086351702913122     -1.220028241034643      2.558881556446346
C       1.148152452265662      0.987486293229147      0.395385765278731
H       2.110606556237379     -0.847422305202304      1.148871096267002
H       1.893138893239049      1.485248446918960     -0.237032142951054
H       0.436686289635912      2.460041364811296      1.741195896495113
H      -0.518338708965422      2.403594403941395      0.222986252289795
C      -0.563555298831669      0.016363148733161     -0.976698268523157
C      -1.680687638918747      0.081841286602148     -0.089308427626832
H      -2.437356123910612      0.945273269080634     -0.258430682741851
H      -2.166566749542779     -0.861594497263589      0.240950732768019
C       0.050698690155595     -1.240371751387847     -1.203576018968040
H      -0.545227420516303      0.834278438493772     -1.706860963455951
O      -0.127844903344030     -2.262043218953715     -0.492069068085909
C       0.937676556335380     -1.344920659572235     -2.398814061884354
H       1.296342407118846     -0.376701610722478     -2.735960575351399
H       0.347553499320342     -1.861668558742084     -3.193395640022565
H       1.692615622171195     -2.118743602127910     -2.158116751198757
22

C       0.010290360791371      1.787456663518143      0.972945560776747
C      -0.796527511476660      0.627578296730633      1.612028884552455
C       0.135019294136182     -0.338565680219529      1.945862903465681
H      -1.546220516841103      0.804680616992484      2.376007302731456
C       1.295502649950383     -0.139722463489687      1.191480698542131
H      -0.129677825905877     -1.217886170295548      2.509028960362259
C       1.137974719726518      0.945507436917991      0.343617571911317
H       2.137088683681921     -0.828785416199941      1.081803271639339
H       1.899773713329820      1.420341076301758     -0.270246449090174
H       0.300779948548270      2.444969579385602      1.754846724597507
H      -0.467920319037260      2.376111947741193      0.173154975352216
C      -0.560692343244737      0.066503342389159     -0.964154489797307
C      -1.672414380891306      0.102511732921935     -0.085295296355178
H      -2.342418722434302      0.882785921189780     -0.138589286523868
H      -2.141139455315540     -0.789587951012793      0.292637341174232
C       0.062243464709019     -1.292228695978032     -1.226108920935564
H      -0.487846560050113      0.909506242471081     -1.706568673675900
O      -0.131054526964585     -2.256296460676813     -0.520966616668373
C       0.943984119800610     -1.353236577354053     -2.435607358205249
H       1.272184963912313     -0.338198181522939     -2.778246246919784
H       0.322356062561286     -1.802713553571098     -3.225888148855194
H       1.736851033116320     -2.105638964114878     -2.275990928134453
22

C       0.035732591583668      1.805123456949738      0.977328570063202
C      -0.796694932621279      0.604447400531874      1.557990725813577
C       0.188217026531304     -0.367507715035746      1.935349453949588
H      -1.466337004900679      0.743942382600372      2.458878399548374
C       1.322191252680314     -0.149842960582458      1.156439219573505
H      -0.115385547419559     -1.263701624687496      2.516433382872473
C       1.104880417125560      0.925242124346741      0.307998901420014
H       2.153551872172077     -0.844261946114131      1.054907134356106
H       1.901596738934046      1.305496781069447     -0.343169509292775
H       0.352189192600257      2.465103595654450      1.868554376117522
H      -0.516364608420382      2.362950334360534      0.216305477412812
C      -0.558921796320468      0.096293142704951     -0.951196563993884
C      -1.640307138554348      0.119717415112945     -0.057983766880735
H      -2.387246931026989      1.036527707494709     -0.054995962724455
H      -2.090387144854441     -0.846353976690544      0.276974164451278
C       0.071639882716202     -1.302728560824370     -1.256235245030245
H      -0.378501512317503      0.850345400008509     -1.689695322964883
O      -0.137491882534908     -2.252450232975491     -0.546185544024643
C       0.954316092157146     -1.369713464288383     -2.471117538686061
H       1.295057493739385     -0.396263725694012     -2.772041914671965
H       0.299700213041517     -1.716260374056645     -3.299334788335913
H       1.833848550080075     -2.030377040741022     -2.388858971010995
22

C       0.042190502981923      1.794530550589412      0.978570251393675
C      -0.802209827852917      0.594597619522178      1.510794586970454
C       0.233952485217036     -0.399438385108007      1.908937406766969
H      -1.500104632257758      0.779927530537706      2.309229018589401
C       1.354417333720292     -0.189427043010137      1.130003781380488
H       0.043295809027880     -1.265380883738698      2.531815864504803
C       1.066814464641128      0.933923362854298      0.275919254784087
H       2.223960673009182     -0.871754796775671      1.041293361535576
H       1.841567284330070      1.229642158915384     -0.420104467435671
H       0.506496627990092      2.342304236291581      1.771908072730696
H      -0.581448224521839      2.439941534001576      0.319649636572436
C      -0.515778252075351      0.085108656524936     -0.946332803161717
C      -1.614523336181327      0.156622066837307      0.015798392410716
H      -2.272268617094614      0.931598539909922     -0.055612074221114
H      -2.039303382572103     -0.837239459058579      0.141584708829012
C       0.067834914029230     -1.257319427576435     -1.281924900557768
H      -0.339156572569923      0.862626223809384     -1.770489036675825
O      -0.146924068148650     -2.255357495572690     -0.563683989351025
C       0.959788075784771     -1.392835875040999     -2.510940830370205
H       1.361179468660602     -0.353582638239619     -2.751513817872206
H       0.312501710522812     -1.658868576698150     -3.364295536337063
H       1.854736255931040     -2.003928351553457     -2.419906489760598
22

C       0.043834903133344      1.749605760343381      0.968446429340478
C      -0.805855312769204      0.584283243344287      1.452346154799623
C       0.273653172749347     -0.421176832960386      1.864349557127806
H      -1.642654516460275      0.876661938894124      2.147478278283308
C       1.367889010057336     -0.228366648824427      1.106338929068857
H       0.181029669543223     -1.287294691175183      2.575362810284673
C       1.027820099055675      0.922465492313385      0.230616526565894
H       2.280219210713926     -0.809796274425166      1.003034810465032
H       1.760178592341501      1.319425440109907     -0.488217094717718
H       0.673726005838814      2.243922646737118      1.797383252965634
H      -0.542409800709901      2.521916429297033      0.448813939494966
C      -0.434719783403764      0.075856821228084     -0.950088676009592
C      -1.544121455242077      0.176830013703681      0.118747961515190
H      -2.372193300278450      1.007192667009467     -0.153559947900626
H      -2.071184353298476     -0.813919409869704      0.067146893530025
C       0.057651982733118     -1.230712939668203     -1.290501587436223
H      -0.441900088684190      0.786893271425395     -1.741130922432668
O      -0.153710974244042     -2.235810783276381     -0.588632791072106
C       0.962064460769893     -1.378067513636335     -2.549875936413014
H       1.380355641937849     -0.407505662790769     -2.727252513320371
H       0.369981812445063     -1.671659623199691     -3.434331624379683
H       1.777777042321217     -2.115333802157612     -2.376817862820484
22

C       0.075451502972485      1.719290755422095      0.981584450037359
C      -0.823208284521689      0.565606308688292      1.407659693926137
C       0.285672724680034     -0.448716746668245      1.824408810671799
H      -1.584115772827016      0.883195482122783      2.093850448167990
C       1.359280916342057     -0.236755588824801      1.061709196364108
H       0.210294896613485     -1.213323359204391      2.580197405411599
C       0.985074550954035      0.880192627523329      0.149498427054819
H       2.345365768668122     -0.743651143674800      0.968822205962237
H       1.676323096559708      1.452288194753550     -0.472817655773873
H       0.645312294571783      2.088177018750572      1.823120135297889
H      -0.444305950019256      2.552256106245783      0.479893890298653
C      -0.348573101230736      0.090407812965469     -0.912554362558692
C      -1.470332236124764      0.197015024632979      0.179722109178225
H      -2.196995754680414      0.835494981318346     -0.154309924486020
H      -2.049103070874027     -0.718038787642956      0.178888415176114
C       0.064838830920685     -1.249014911527489     -1.312945685025420
H      -0.547762934961067      0.798018381757804     -1.796773047572706
O      -0.161741540043467     -2.202134861315458     -0.619321553085370
C       0.951735513374860     -1.356864400178795     -2.569401692843459
H       1.505506910508682     -0.371803540738117     -2.781400481749177
H       0.426912276823924     -1.700350117407506     -3.473721613437330
H       1.586897777969429     -2.224255677685500     -2.323528100403548
22

C       0.108808128331023      1.695964428934035      0.999602254929039
C      -0.812273003747505      0.551508979930297      1.433210159160654
C       0.268299069373973     -0.470095617334552      1.782282784428575
H      -1.482953375883087      0.818297024611008      2.285042285027720
C       1.353305872779341     -0.229085107908353      0.991050098333842
H       0.147559184835081     -1.199475516340212      2.623007234290497
C       0.918197846879892      0.828264352255695      0.025573173291791
H       2.343141978304930     -0.672331518631226      0.958305186331914
H       1.720118400973925      1.436002289530361     -0.441994411334048
H       0.656101416094635      2.070057936041914      1.937860990989972
H      -0.351891117609540      2.539336795817112      0.448084193906017
C      -0.257460071416930      0.153360851927616     -0.834015359068893
C      -1.382985285397728      0.173915794345112      0.152462996020720
H      -2.192581784165486      0.990865189956226     -0.188011150642902
H      -1.958135926821545     -0.762946720932431      0.395973556854896
C       0.091386095435279     -1.250671551403863     -1.367879531294252
H      -0.556259129307198      0.712741727827102     -1.706625041463127
O      -0.181776036117814     -2.191683312265936     -0.639369987723331
C       0.936164662796395     -1.337985440037913     -2.572669602550058
H       1.614827809991865     -0.534612700032967     -2.796112306746146
H       0.397628444525973     -1.633991410969395     -3.493970736070426
H       1.490323262666868     -2.270011211594564     -2.317551159035103
22

C       0.136217263152253      1.675066906282003      1.015203603904100
C      -0.770904893043230      0.547474788475484      1.507998307510698
C       0.255534039306693     -0.489431252466907      1.728171541758309
H      -1.394512173551999      0.678444055389150      2.376400790633805
C       1.315011945675815     -0.225807405764303      0.921392294410234
H       0.108623888474943     -1.137074703150762      2.564281904028196
C       0.843693508289165      0.802341248134574     -0.084477084843180
H       2.336882814531282     -0.657590184537631      0.964171561197457
H       1.753082152416964      1.209016824918401     -0.564262227055331
H       0.725460932701651      2.101967801927998      1.815107753793990
H      -0.328945740535790      2.513769955165530      0.462978082328678
C      -0.151827508081539      0.193598846237805     -0.741367855550393
C      -1.333823534801690      0.152609525362021      0.101828927668742
H      -1.984083223043491      0.918283477155903     -0.112082370099535
H      -1.807538626771438     -0.762438823364692      0.383753854789512
C       0.113151250650781     -1.220162610699513     -1.393057028546858
H      -0.436780218394848      0.835901249708637     -1.662559611585720
O      -0.200344617960867     -2.189941925375133     -0.665742722379320
C       0.917494919676915     -1.353866175290649     -2.576887045198096
H       1.742744105582228     -0.590413432755630     -2.746140159643939
H       0.323076496555674     -1.496563488553393     -3.496755901338236
H       1.510534519757815     -2.281787136402587     -2.420558675659723
