22

C      -0.054358877019910      1.818292036192819      0.978000695886790
C      -0.885130400871850      0.756600608199369      1.646415371213540
C      -0.008396110223220     -0.265458063823011      2.008732505439470
H      -1.784426625062059      0.987833627452589      2.204802340157830
C       1.193718366157370     -0.113870754970751      1.298685222592910
H      -0.262245946600830     -1.114433596881321      2.628290239716101
C       1.120422421893490      1.020418721708359      0.528661857645340
H       1.993221352956530     -0.841390399401481      1.280148592263270
H       1.895057938714940      1.397305068361709     -0.125190678932640
H       0.287890694966570      2.516734345025499      1.757598249308760
H      -0.555458155466170      2.403955993682249      0.209272238163790
C      -0.700163294135400     -0.034993348405441     -1.014957068363840
C      -1.714487045356380      0.033886352619679     -0.075679580887860
H      -2.449619693011539      0.827769164010049     -0.151553653547790
H      -2.075477670016270     -0.904102434507051      0.329249252262580
C       0.037995126778830     -1.276911931387211     -1.164452438837120
H      -0.512837261450720      0.773727152348119     -1.710901131945380
O      -0.108000216134870     -2.202618371901111     -0.379100983467770
C       0.980229405324210     -1.405757663678131     -2.335145058936740
H       1.363078896085740     -0.442711049025371     -2.678088653987070
H       0.434233439777440     -1.866991205201431     -3.164376608054930
H       1.804753652694100     -2.067284250418121     -2.070410707689250
22

C      -0.046401897325179      1.821827641521487      0.921404413074528
C      -0.835257191865539      0.750185028619765      1.614782050064181
C      -0.035729732660402     -0.365160951900204      1.966696715399736
H      -1.666651802702781      1.121637471734988      2.210052063261129
C       1.244106999768269     -0.119601299733719      1.274735082037654
H      -0.323105364128754     -1.188318779724647      2.663842375433763
C       1.092644117101809      1.032851933037527      0.492773112527346
H       2.045691600012290     -0.861821568707883      1.123409292448772
H       1.830561688184942      1.548161878766291     -0.145963606094662
H       0.173876151653957      2.531683225398595      1.758094951665923
H      -0.660074660194218      2.280747341380939      0.117424172755308
C      -0.692037434666359     -0.053753185355142     -1.023829086826462
C      -1.739559751632636      0.078702079920016     -0.071333967622081
H      -2.540634848625622      0.839107589653041     -0.331077505986140
H      -2.027551311569153     -0.895745360512450      0.336114145435460
C       0.036042619725038     -1.240746321929211     -1.170497941820786
H      -0.531756581205031      0.697392098908675     -1.836631015725847
O      -0.118116027532168     -2.165456309282960     -0.342466259040814
C       0.980802498665757     -1.409364751074385     -2.301313841787321
H       1.408085463098328     -0.400570012005633     -2.711412669226753
H       0.386575308232568     -1.910125566601373     -3.124387796205171
H       1.811726740570482     -2.020443511596482     -2.030516526170333
22

C      -0.075256929697803      1.810688681016518      0.897766822873748
C      -0.827323468139564      0.726202917455977      1.579960875543958
C       0.004468259174657     -0.399711591801973      1.897317751111919
H      -1.650260317153227      1.084470768172189      2.251647581976516
C       1.235044367920312     -0.139232086994411      1.245720711147744
H      -0.288419066407123     -1.201469029597640      2.546745920203556
C       1.098102925458719      1.031461353874827      0.459416303040905
H       2.084163478081864     -0.822428303258057      1.099995572931055
H       1.889211974069209      1.483053893267027     -0.157018390976721
H       0.154489119634277      2.626517863302095      1.597355601297330
H      -0.648514030557634      2.324899503831479      0.111913162072775
C      -0.715015789058451     -0.019697935341082     -1.047670215433243
C      -1.739113809137687      0.108594071595202     -0.089875148982566
H      -2.504915336560824      0.803939639260962     -0.298909281458199
H      -2.125490444187997     -0.839039112786259      0.346116500857339
C       0.041380371464136     -1.256325402447602     -1.122508758437041
H      -0.623954978676972      0.679897208701425     -1.865162244943909
O      -0.127544386304243     -2.122523258887217     -0.315252323629883
C       0.994276937620149     -1.395717037661557     -2.297558636704097
H       1.361956309699677     -0.509162192367897     -2.688957885665609
H       0.451038444867161     -1.905833270477027     -3.072389405567548
H       1.849305528753859     -2.098002908513265     -1.974136907782790
22

C      -0.091199513931430      1.797623510186906      0.884834600188471
C      -0.870392280745624      0.682457301078266      1.549724308437421
C       0.048028923208585     -0.366822497921000      1.826605563565390
H      -1.673816044576656      0.847669540551216      2.221524550302340
C       1.216954973283096     -0.145384636559801      1.178675587067769
H      -0.188469193843554     -1.295464186290474      2.369163628957804
C       1.123189984915149      1.011881060651929      0.437431667934416
H       2.081845921342582     -0.789898906975560      1.173200493593992
H       1.955084586086498      1.333510049130506     -0.169638772068018
H       0.278822876286693      2.655143821528780      1.512213076715563
H      -0.621256360452356      2.338799947627261      0.097213247136684
C      -0.738746697180395      0.024310076048491     -1.079223167164850
C      -1.726625852386731      0.112815817413099     -0.099321996262596
H      -2.492242067468433      0.932155916483668     -0.193436555461099
H      -2.150588191035379     -0.785818160325205      0.297069067494413
C       0.036364091386257     -1.236244512498305     -1.108236209298850
H      -0.652698682384394      0.750894044815843     -1.886586893797060
O      -0.136602687507320     -2.105835726868973     -0.260671443247189
C       1.009661455122880     -1.411317857907265     -2.272340350494403
H       1.411960987835054     -0.420852236575074     -2.684840088553029
H       0.489237341655799     -1.950857226908041     -3.113562779283028
H       1.792250885493653     -2.074537347911992     -1.990695968225639
22

C      -0.073297703764954      1.787836954232348      0.883205835407837
C      -0.924279009929027      0.642321087715656      1.495855090766969
C       0.043542696963298     -0.332154482801842      1.797221637653821
H      -1.809037417277417      0.686596657614401      2.188707214180154
C       1.251218081941289     -0.130426759335784      1.100108729276584
H      -0.125723330883379     -1.327696043977176      2.225969087655557
C       1.139931848415705      0.998669536697024      0.407006828204135
H       2.054300622790807     -0.875775660733549      1.169310437338219
H       1.955900260605936      1.342238431744333     -0.241673895476210
H       0.347599414914692      2.474211487252660      1.640135247803335
H      -0.615236034824489      2.301200640123329      0.066588617524285
C      -0.739905710076924      0.024818176002307     -1.111492799412365
C      -1.722484257832480      0.128443805089021     -0.080296187201977
H      -2.385504014557017      1.013158719372306     -0.113639924316177
H      -2.153554581885406     -0.838385218899509      0.208271979514007
C       0.010027372487545     -1.202907604961742     -1.127838813017401
H      -0.602389576596201      0.815222956406447     -1.882546829325954
O      -0.143077088753161     -2.076943811542856     -0.215861492569293
C       1.014180711216844     -1.434059964764403     -2.254182492774300
H       1.421338550127848     -0.454225391479978     -2.603858683977857
H       0.510891371025793     -1.920696662732861     -3.090961802000964
H       1.868299637881794     -2.083452672039111     -1.958939304095050
22

C      -0.049590944563220      1.764122499224973      0.884948375395848
C      -0.957258903832435      0.605636511123351      1.423192111836943
C       0.054863538208651     -0.344778631253716      1.768633073505824
H      -1.829344543631081      0.757123270148633      2.070301814609437
C       1.282794422713784     -0.145893513865023      1.081475584936423
H      -0.216037184577832     -1.256552506103376      2.285243364762864
C       1.141308505347051      1.032569163613339      0.337162848332365
H       2.033237847453222     -0.934669202706883      0.983151896969901
H       1.889022027116275      1.505224925249571     -0.324128914963660
H       0.240526002323274      2.364818418348544      1.761500200741612
H      -0.533132415225322      2.401653714495461      0.142619413910119
C      -0.732263978148992      0.011153967625845     -1.127432758588480
C      -1.700164534873868      0.149434092440678     -0.052215072522580
H      -2.408405836047985      0.937475244320070     -0.178667927901102
H      -2.209207605764242     -0.830703310570141      0.112224353580425
C      -0.023069416474458     -1.214268037272918     -1.132490634690920
H      -0.531346654246514      0.781644182668063     -1.846687490798014
O      -0.150095280055991     -2.004978091678571     -0.208338998563983
C       1.015355550030056     -1.455682275170396     -2.223338106880463
H       1.417309144967867     -0.529266254746418     -2.552128577889869
H       0.513271398673925     -1.887773054604290     -3.091294001911752
H       1.844715930940955     -2.119444234875617     -1.870557021739977
22

C      -0.044409674369159      1.746581760029079      0.891116991077256
C      -0.959666233706330      0.584327281107042      1.299468269262116
C       0.089444435867194     -0.407968634913640      1.729068714044312
H      -1.700792782915806      0.901230826730518      2.007254844076254
C       1.273338637086880     -0.149480157384581      1.075663857756226
H      -0.197411445293352     -1.197468427536620      2.438213128755425
C       1.110413277418040      1.050719246689400      0.281780182590738
H       2.045099014758367     -0.885735680135157      0.861314372096490
H       1.783025764315814      1.591908440481652     -0.371567962266138
H       0.180130955120740      2.340261605749200      1.835668966092072
H      -0.484147356528406      2.548368308500841      0.255235899051373
C      -0.716829661455628      0.015762576441931     -1.118964250416155
C      -1.664281620204099      0.168969652964017     -0.033024029904740
H      -2.512583495824539      0.876470358597736     -0.346567112424986
H      -2.201267978905644     -0.760038462875233      0.104281591317768
C      -0.031775264872900     -1.219899347919833     -1.163652672916792
H      -0.543767730905563      0.760041743942555     -1.914510335691909
O      -0.170634215242076     -1.953968102464153     -0.181581859022635
C       1.011708856022139     -1.474812381531715     -2.177740865182086
H       1.480563546049024     -0.461191538134947     -2.525279030404059
H       0.559245909286208     -1.923094332864013     -3.114964069846085
H       1.727431173668540     -2.156592178437278     -1.819896699811495
22

C      -0.055200089423089      1.774443582284206      0.895154830808763
C      -0.924497215202846      0.594308830035440      1.194197315131735
C       0.098815311476992     -0.465001165880030      1.682161477919633
H      -1.583672746681298      0.888599424996334      2.068659327550892
C       1.267290043050117     -0.132024378210514      1.044226435389008
H      -0.031044695092322     -1.231288311541660      2.463232989229466
C       1.033481247450281      1.028689160257866      0.253834975896574
H       2.144543378791987     -0.806453962885443      0.924408270811320
H       1.763478075585577      1.502607558063278     -0.425636583603411
H       0.280973165346854      2.183568370300366      1.838257436140291
H      -0.555891141266210      2.559511174923396      0.317890041444272
C      -0.661005447190165      0.041534182844127     -1.121169602211849
C      -1.657901980166448      0.185182143122839     -0.041779732329424
H      -2.401639394727760      0.904657485010804     -0.298505777749402
H      -2.117970550683071     -0.796034422793892      0.188084533973933
C      -0.034890744276074     -1.207798517247832     -1.182190961034040
H      -0.708360429328273      0.736920192339563     -1.985995086425547
O      -0.200199450327643     -1.934804501750159     -0.151594786588951
C       0.999782767127733     -1.477518614229692     -2.170155516645803
H       1.522583152047395     -0.584248233093492     -2.380053139702788
H       0.626421144728935     -1.920068518143469     -3.063119169752399
H       1.735049757930268     -2.230664690493276     -1.724311962931266
22

C      -0.059059148706283      1.813989438805745      0.897102408355550
C      -0.881456034711081      0.592249340731086      1.209729437304212
C       0.115424419580967     -0.478206315438804      1.609644178059748
H      -1.641940655066773      0.694878985729302      1.984397537566377
C       1.278985951003257     -0.117904651243089      1.018955069193610
H       0.028648622527021     -1.309654776460885      2.299076084819226
C       0.953801718506345      0.989033657990501      0.180687337568470
H       2.227973808600875     -0.620642958335868      1.049301801641541
H       1.752934336360568      1.362004917248143     -0.477806292275975
H       0.401787231162367      2.142816938296979      1.867036770666099
H      -0.607452622495410      2.586799089285924      0.328553750214326
C      -0.606447370734705      0.104571860234327     -1.126970332921719
C      -1.659732453295737      0.187374936821037     -0.071453404281971
H      -2.383765582059481      1.000380648451622     -0.205801670131721
H      -2.090339149618929     -0.800698492028850      0.218345371027763
C      -0.051165901155626     -1.211705287143737     -1.139761588614628
H      -0.786007012494800      0.682837939353142     -2.003997170926668
O      -0.235574811239496     -1.929738752061570     -0.152783490979339
C       1.012045229856638     -1.511427150929437     -2.161912826304102
H       1.609641788736702     -0.595623094932600     -2.356747326639077
H       0.640175109232548     -1.898571065373994     -3.153306763006713
H       1.679918270651139     -2.211971475000777     -1.682444586688332
22

C      -0.054553780810153      1.829236917513455      0.893625426725771
C      -0.899255121293100      0.545408093887992      1.298836737547860
C       0.152359681172658     -0.478963957272908      1.547268539032048
H      -1.709465416376115      0.607883279793156      2.023087090617921
C       1.305375203667076     -0.094136880402029      1.017968029614799
H      -0.095005700085597     -1.380394725592425      2.111273468014668
C       0.896536126522941      0.962877085972110      0.047257526186060
H       2.305777349970237     -0.523592350221466      1.061414620103570
H       1.650911623791207      1.416854020481232     -0.589651792640078
H       0.430700935017012      2.286080493269797      1.762919870864233
H      -0.555587434502612      2.642789743119604      0.338013236506694
C      -0.566911209990412      0.173819745960439     -1.100598284594192
C      -1.635863947891441      0.209494668933674     -0.088034102538369
H      -2.460713190541315      0.996729155820197     -0.230725780187628
H      -2.178513788985370     -0.706815801468257      0.011236250561453
C      -0.041399543778783     -1.211952459426642     -1.117495059472164
H      -0.661038991035500      0.668196517133799     -2.098452389909882
O      -0.277472538588026     -1.941007265817658     -0.168000987740726
C       1.021757970038924     -1.553485425996681     -2.145331035352434
H       1.603080580169798     -0.586416723012937     -2.390467840183518
H       0.626630416423127     -1.874063315578549     -3.120738992063429
H       1.672691760009327     -2.309476014747473     -1.727080555287932
22

C      -0.068493809118032      1.796006276853476      0.882318559264973
C      -0.961299591731162      0.525672969322640      1.332851330120802
C       0.169640453031143     -0.497897140370010      1.543452302999589
H      -1.635774920949564      0.631649873565146      2.252144611598568
C       1.354810033155756     -0.035013817255999      0.984692202002958
H      -0.137147606560928     -1.434105478892377      2.038773385334789
C       0.834950476535995      0.956392000322419     -0.079607324656541
H       2.309203628382269     -0.611245911571857      0.939546156894982
H       1.524231376736904      1.501579914834821     -0.759107535702611
H       0.502645347095827      2.336586713838311      1.639051395919068
H      -0.577185469562007      2.594307286023044      0.325252892044516
C      -0.478861613608879      0.220026171075551     -1.052737361909202
C      -1.636807005744268      0.272595628134545     -0.071134862275940
H      -2.353417588064432      0.983750707862239     -0.342018680180988
H      -2.196345300180787     -0.711688470859859     -0.186744701799980
C      -0.010350420939160     -1.191096372033915     -1.128997324721581
H      -0.480111048914713      0.722090763658479     -2.015136387622615
O      -0.323648654311059     -1.972148769641121     -0.194701434706703
C       1.024857453567032     -1.577286438242226     -2.122950999497707
H       1.573267396645095     -0.743019571594603     -2.357440174301614
H       0.549812902689306     -1.926512423821225     -3.033658891509039
H       1.699753521605198     -2.449647803393136     -1.804682639144290
