22

C      -0.054358877019910      1.818292036192819      0.978000695886790
C      -0.885130400871850      0.756600608199369      1.646415371213540
C      -0.008396110223220     -0.265458063823011      2.008732505439470
H      -1.784426625062059      0.987833627452589      2.204802340157830
C       1.193718366157370     -0.113870754970751      1.298685222592910
H      -0.262245946600830     -1.114433596881321      2.628290239716101
C       1.120422421893490      1.020418721708359      0.528661857645340
H       1.993221352956530     -0.841390399401481      1.280148592263270
H       1.895057938714940      1.397305068361709     -0.125190678932640
H       0.287890694966570      2.516734345025499      1.757598249308760
H      -0.555458155466170      2.403955993682249      0.209272238163790
C      -0.700163294135400     -0.034993348405441     -1.014957068363840
C      -1.714487045356380      0.033886352619679     -0.075679580887860
H      -2.449619693011539      0.827769164010049     -0.151553653547790
H      -2.075477670016270     -0.904102434507051      0.329249252262580
C       0.037995126778830     -1.276911931387211     -1.164452438837120
H      -0.512837261450720      0.773727152348119     -1.710901131945380
O      -0.108000216134870     -2.202618371901111     -0.379100983467770
C       0.980229405324210     -1.405757663678131     -2.335145058936740
H       1.363078896085740     -0.442711049025371     -2.678088653987070
H       0.434233439777440     -1.866991205201431     -3.164376608054930
H       1.804753652694100     -2.067284250418121     -2.070410707689250
22

C      -0.105657164329765      1.812991962133061      0.934373541683012
C      -0.922275697733120      0.764130409631410      1.617819958231118
C      -0.001059681564349     -0.254906063366150      1.967606397398935
H      -1.790774369376529      1.053380952085844      2.253339329535245
C       1.242234996315337     -0.078260608814553      1.267956684887680
H      -0.194845999532959     -0.994118444194503      2.659321123870735
C       1.178057417008669      1.082336623366931      0.560152270018029
H       2.088561912729038     -0.740687114365590      1.346072329829389
H       1.994796026877046      1.535137897787389     -0.098419181981068
H       0.067650823318401      2.513007890928256      1.737485391590862
H      -0.559976666799436      2.421134490620895      0.147606174743878
C      -0.845434446266017     -0.076367759032363     -1.129547951345365
C      -1.821904814469634     -0.009102119631374     -0.129230439877143
H      -2.605234948582542      0.750082438721536     -0.264543267884080
H      -2.096217595515453     -0.954507672225602      0.323285689836574
C      -0.024188469226682     -1.290069140341147     -1.293889227997199
H      -0.633586157458664      0.796710755153926     -1.726958863440539
O      -0.069097365165991     -2.197684054915980     -0.444350695740039
C       0.974543109931263     -1.472982451260824     -2.393163434948637
H       1.240364447969997     -0.563707439055541     -2.709466194708590
H       0.514108398861263     -2.047049026165040     -3.221506190482617
H       1.875532907205717     -2.061425792386641     -2.011060331646184
22

C      -0.099347753108767      1.857591598301698      0.908447394420681
C      -0.863587139841333      0.738845399675284      1.604030057912753
C      -0.021775742730719     -0.229562225516413      1.952317668352379
H      -1.887940167911744      0.833149248520647      2.032039214518918
C       1.232033920614151      0.003148265923310      1.284292108148393
H      -0.184050373833398     -1.139487761110222      2.528800910108928
C       1.176449125993847      1.191515724074864      0.588756307818031
H       2.035108648149243     -0.748875056944925      1.236228048169079
H       2.065286773854351      1.602189353140155      0.001011797802457
H       0.242851968015414      2.614222374325630      1.593384398804377
H      -0.667081938136658      2.343523156813581      0.080372183240160
C      -0.959588433301000     -0.138545941891334     -1.219329752542307
C      -1.894548483433444     -0.100962501835603     -0.254056501082132
H      -2.580225957263923      0.731120104967062     -0.041140793294522
H      -2.099099596592813     -1.031947755551415      0.289670254492244
C      -0.090843857021858     -1.330866996031204     -1.344228957424985
H      -0.847478756170794      0.624432499509894     -2.004494191794762
O      -0.088791934396568     -2.187564115921283     -0.513432368264642
C       0.966047046689840     -1.495671182829152     -2.496387813509161
H       1.417451349867309     -0.727251694310953     -3.055457133839194
H       0.616466638040636     -2.257870265491600     -3.226787836112972
H       1.771190806497062     -2.021959780279955     -1.924707766429892
22

C      -0.113078091192008      1.877150593273713      0.906251079880670
C      -0.843300695286786      0.832033024360284      1.666980675755838
C       0.008229874656805     -0.225268455383955      1.920636507539734
H      -1.874320310868697      0.952310926052679      1.962307088697743
C       1.277107229570579      0.059576571402683      1.258241325051999
H      -0.367907532349184     -1.215698233364116      2.419785123518888
C       1.220421078204896      1.230934549671808      0.619287998701434
H       2.150713762999430     -0.612936145281045      1.197657818786436
H       1.963170317401725      1.751968273318666      0.048549743302685
H      -0.115294646205745      2.785365628909457      1.556482365499301
H      -0.635977945983241      2.260084866322346     -0.003444645631039
C      -1.050500427259271     -0.214216020167134     -1.396475588030628
C      -1.985367184373873     -0.240624100780817     -0.403942103873287
H      -2.723133323348619      0.579877738681066     -0.330801106103346
H      -2.099632373168484     -1.147156395199584      0.237883573672406
C      -0.062798863716076     -1.340726769802362     -1.430634788704526
H      -1.005376733553121      0.686410074358604     -2.066487304860962
O      -0.161377547417431     -2.188518722549279     -0.559729240150904
C       0.937029337028768     -1.558063091516293     -2.517533872651212
H       1.050011314772744     -0.547198007054443     -3.089468440197058
H       0.544478904494008     -2.327997727344811     -3.182039173245291
H       1.841824200607893     -1.943721307707181     -2.124844724400755
22

C      -0.132746479184274      1.887629129374790      0.917262508930193
C      -0.815963400112426      0.899666902911497      1.788598163470662
C       0.008380117431770     -0.170206374025493      1.852080514611993
H      -1.707290749183902      1.037827516457200      2.340347158979768
C       1.310547637247685      0.079270297257368      1.219398024978632
H      -0.164038987579276     -1.122606271516378      2.466825691440822
C       1.244606591331085      1.330666912975649      0.675484111021774
H       2.170208475908908     -0.598463489519256      1.352274870701967
H       2.004749972934530      1.770414925788628      0.119662450330903
H      -0.036673542914925      2.927398076284267      1.382815751740542
H      -0.653176616319469      1.986524345048205     -0.059052558942582
C      -1.121292208295974     -0.291190990578073     -1.550764878038828
C      -2.102533018618524     -0.353088075274013     -0.659312554163102
H      -2.911895754361737      0.358567652698808     -0.624586629314069
H      -2.093966780689504     -1.159117690415810      0.084844592318692
C      -0.097325550304080     -1.393557078413830     -1.477595715190918
H      -1.050019498745658      0.524777316595140     -2.273810637494420
O      -0.207430265463778     -2.229663099004740     -0.586294326840420
C       0.896796056507130     -1.540083137892782     -2.574187531712656
H       0.978422615510199     -0.547873528120802     -3.285513690372442
H       0.480179809860218     -2.308511420115424     -3.220802416174660
H       1.883142905803034     -1.791295613532069     -2.284157828628936
22

C      -0.102731101599447      1.970871443171174      0.926400340853865
C      -0.737374987649145      0.931913233192509      1.883511414180773
C       0.036840508283562     -0.152037779173306      1.879818391339597
H      -1.721874449987455      0.990420187191925      2.344030826640600
C       1.272645690849603      0.145442141707080      1.226158752624567
H      -0.160212667969808     -1.070313803935147      2.352989956568775
C       1.258285296005710      1.408912053218690      0.730319009335980
H       2.093343790995743     -0.516662172103388      1.030179633767793
H       2.112617659702527      1.924278275284441      0.248072296843200
H      -0.195973298845987      3.087335709846153      1.129656177768528
H      -0.667536493354266      1.781370869878385     -0.015881971838806
C      -1.181328846384067     -0.388605278534851     -1.684582184658857
C      -2.242843694828659     -0.425745190003762     -0.902180972181311
H      -3.021647086996057      0.333313161262272     -0.849050996018371
H      -2.274448846647198     -1.214901169235983     -0.178045152822526
C      -0.178838086725910     -1.483282631121857     -1.519954006584057
H      -1.066350780841033      0.214721339818466     -2.563271509748610
O      -0.207867821999078     -2.282512237125365     -0.637203605844288
C       0.855571180497649     -1.508865466656214     -2.678997873424125
H       0.975492593488125     -0.535134593339776     -3.299619757255838
H       0.672207183831230     -2.369327546683873     -3.357004213735474
H       1.825769410285822     -1.773220153150106     -2.186368756818554
22

C      -0.120874093280562      2.012488882928465      1.015922888716472
C      -0.702229800341337      1.023000008787697      1.900070543116251
C       0.059532575725061     -0.129418400408245      1.936400972434941
H      -1.775376442041791      1.101199446213541      2.248694275777945
C       1.310496241558442      0.203302292246433      1.168551118197541
H      -0.263485263353644     -1.042758459910292      2.292621628897043
C       1.276164606243509      1.482285377427913      0.791029901996571
H       2.082703448733908     -0.533306468755203      1.044201101975563
H       2.120973326046512      2.029384744598902      0.205697453296012
H      -0.392121231653456      3.046049181566493      1.179693580103852
H      -0.569136699392329      1.704639038466401      0.034556744361646
C      -1.263682942516392     -0.545334023419416     -1.839201590215853
C      -2.392382971056361     -0.492124000767538     -1.080717236589245
H      -3.049036093700247      0.398420139975932     -1.205309468056988
H      -2.645361122393443     -1.322310120990864     -0.416793620864450
C      -0.230752280104461     -1.562941487671783     -1.687504474783149
H      -1.121255850743221      0.313235567499021     -2.498542090511996
O      -0.194414392828509     -2.301966754923033     -0.717628230297860
C       0.856742214773182     -1.526384425601511     -2.687227250041665
H       0.858916018973484     -0.610187463365852     -3.148222481461726
H       0.703317981551487     -2.318938652803647     -3.484481393010630
H       1.875127940591005     -1.674463959935183     -2.166072766258238
22

C      -0.082877558177645      2.049391378224575      1.059345299480682
C      -0.742217986471811      1.009299302166619      1.927745240851136
C       0.103046670990900     -0.028603545591855      1.918792582657384
H      -1.728981293783058      1.118372739239026      2.440896621583466
C       1.316179097450226      0.237292425022189      1.212054072379856
H      -0.055250433566646     -0.991219810528593      2.462863875879749
C       1.278514738536015      1.543821972571768      0.809982357242070
H       2.170698579192271     -0.427458885847599      1.026707044938650
H       2.021802231506987      2.080691832398794      0.137718337263946
H      -0.110304416508021      3.065296707983377      1.354714256604310
H      -0.656216422966068      2.012217822299289      0.090672526504899
C      -1.416923481251564     -0.627450331025007     -1.971472771032434
C      -2.542600684590273     -0.560368175102298     -1.286950212595019
H      -3.216032491305696      0.302072230852051     -1.377239741318629
H      -2.935992232211893     -1.336696885370133     -0.589166103952368
C      -0.256954289844043     -1.594444491815758     -1.759029015571050
H      -1.138640474519145      0.179033062727865     -2.686396813737907
O      -0.191094560791836     -2.355657906407516     -0.799689716509125
C       0.893579650725956     -1.540795916186540     -2.750510487829070
H       0.996064396911120     -0.661000130093366     -3.255521394107149
H       0.771362744826245     -2.361504213803705     -3.511263485300358
H       1.853829892176750     -1.788311723538743     -2.222495420921751
22

C      -0.106162964247678      2.150937362190833      1.114573374145672
C      -0.715734289697040      1.028295812302260      1.957256341752287
C       0.121121201518078     -0.025415104277335      1.992595551487949
H      -1.661018969725444      1.098224529102712      2.432444709307863
C       1.369880060539090      0.327662881338017      1.252215367088162
H      -0.008213202685528     -1.049335289748267      2.550261309517543
C       1.242974647644354      1.562970697930921      0.733938699066780
H       2.210174198043785     -0.371564827344772      1.136896541430672
H       2.016552917684292      2.091268283644324      0.259524675876311
H       0.013215600106223      3.064927303537544      1.715822437446217
H      -0.600143921971548      2.448944422781877      0.180144093000446
C      -1.472543127918652     -0.699986909477603     -2.095218791204633
C      -2.674182606311401     -0.652905176819879     -1.500291511055999
H      -3.352468740243416      0.160182024516770     -1.690618980852654
H      -2.936172895643157     -1.429244690565174     -0.757775982036934
C      -0.279953674367405     -1.601529345548469     -1.790637391177546
H      -1.361674119129544     -0.108790405328143     -3.035472770647493
O      -0.237851985385797     -2.407687637032827     -0.896499629777601
C       0.906656607081171     -1.564317525726394     -2.827122750328642
H       1.107090397670145     -0.589605499991169     -3.353213419206711
H       0.742551420569890     -2.343959618798921     -3.556201029291817
H       1.782927785900368     -1.847590118140962     -2.267193925396988
22

C      -0.073375238365710      2.186305040207396      1.192886887396133
C      -0.699574178235141      1.064378998637111      1.909668207904551
C       0.174453726537707      0.024738244558333      2.046629244730438
H      -1.689080118552887      1.071044071634383      2.295793458325130
C       1.343437092490627      0.373175181319563      1.300425714910355
H      -0.106116532556855     -0.920654642477727      2.582275102950409
C       1.218063127599956      1.597614845033705      0.722052640475499
H       2.247507392787353     -0.223312105969173      1.283809897960730
H       1.874932561747619      2.090855567235153      0.081045086051328
H       0.092645949117339      2.983824510717928      1.987392864242649
H      -0.842820877900388      2.598927913284430      0.547497003552951
C      -1.459987239993024     -0.792613975427587     -2.266406880198461
C      -2.694573874426298     -0.807273412514654     -1.653259318581176
H      -3.486311901243012     -0.227875482508900     -2.137380436576317
H      -2.979726212876331     -1.378721980392095     -0.797324281933477
C      -0.306822330593417     -1.628210716908745     -1.916415511558398
H      -1.317712123685879     -0.075512403850291     -3.093879992156172
O      -0.310354874649023     -2.396836520411929     -0.990990498826585
C       0.844737355821487     -1.567431455085232     -2.821241085116326
H       0.898351301752068     -0.445921297225672     -3.298934104812739
H       0.641118078821882     -2.190502170168421     -3.638721202456696
H       1.750497828207673     -1.858611751247341     -2.357023423793520
22

C      -0.071520827154797      2.215816605496166      1.260224724676956
C      -0.766618760871408      1.057071697513216      1.940008465557473
C       0.155933750019925      0.087084743935480      2.066427111668178
H      -1.812364774761576      1.129201172155528      2.328204647120386
C       1.386052438233607      0.431984086947641      1.306830892607601
H       0.100764742672718     -0.794979768538074      2.579841241507634
C       1.185984732523768      1.632583388561849      0.729979012022726
H       2.251134223723998     -0.204736765390298      1.149279339466608
H       1.895688060153605      2.100742879671228     -0.008544491692222
H       0.310993568163365      2.959364047795422      2.074662750332113
H      -0.513837061513736      2.818117972858961      0.458268062484456
C      -1.511822034888036     -0.834921964643444     -2.415111189084794
C      -2.662253930020839     -0.964838622529240     -1.860085930964711
H      -3.575312178151205     -0.549561390391659     -2.324097322788893
H      -2.691643353482224     -1.434077871639171     -0.878959975812262
C      -0.366782903738964     -1.699904175109341     -1.991508182537540
H      -1.294331538160848     -0.164214950482461     -3.233533804226676
O      -0.404710086896006     -2.413770617145478     -1.012041624386049
C       0.827197301505831     -1.496354974016501     -2.888426242959594
H       0.979386291651679     -0.365188592282001     -3.198676660892915
H       0.678814613834534     -2.089234956371602     -3.797320255007911
H       1.747248384727516     -1.875309247324145     -2.376719216710562
