22

C      -0.054358877019910      1.818292036192819      0.978000695886790
C      -0.885130400871850      0.756600608199369      1.646415371213540
C      -0.008396110223220     -0.265458063823011      2.008732505439470
H      -1.784426625062059      0.987833627452589      2.204802340157830
C       1.193718366157370     -0.113870754970751      1.298685222592910
H      -0.262245946600830     -1.114433596881321      2.628290239716101
C       1.120422421893490      1.020418721708359      0.528661857645340
H       1.993221352956530     -0.841390399401481      1.280148592263270
H       1.895057938714940      1.397305068361709     -0.125190678932640
H       0.287890694966570      2.516734345025499      1.757598249308760
H      -0.555458155466170      2.403955993682249      0.209272238163790
C      -0.700163294135400     -0.034993348405441     -1.014957068363840
C      -1.714487045356380      0.033886352619679     -0.075679580887860
H      -2.449619693011539      0.827769164010049     -0.151553653547790
H      -2.075477670016270     -0.904102434507051      0.329249252262580
C       0.037995126778830     -1.276911931387211     -1.164452438837120
H      -0.512837261450720      0.773727152348119     -1.710901131945380
O      -0.108000216134870     -2.202618371901111     -0.379100983467770
C       0.980229405324210     -1.405757663678131     -2.335145058936740
H       1.363078896085740     -0.442711049025371     -2.678088653987070
H       0.434233439777440     -1.866991205201431     -3.164376608054930
H       1.804753652694100     -2.067284250418121     -2.070410707689250
22

C      -0.018590412370092      1.830815452225174      0.916110816729738
C      -0.844432950975945      0.724281152080179      1.593086272533125
C      -0.017659185241129     -0.262535235682458      2.048133510524025
H      -1.734701983621951      0.988675663895661      2.162209034416343
C       1.225838121249542     -0.064817655159312      1.318720044967107
H      -0.078531253671224     -1.214094485770511      2.536489696695518
C       1.114214048605872      1.016177944394069      0.515117750911856
H       1.992105452311742     -0.939762588814139      1.343744193829922
H       1.868789254404575      1.285997585444795     -0.177922589609816
H       0.261144628116222      2.577235019579986      1.724865404766107
H      -0.720352003414409      2.394636538569070      0.274757440685308
C      -0.676526891453385     -0.048350145062390     -1.000421151745317
C      -1.673780965599684      0.070474597592802     -0.014356171548854
H      -2.353461623499050      0.908948208078401     -0.144503189920028
H      -2.175268032316353     -0.818408768334734      0.365094637743465
C       0.037866291668393     -1.260485899229926     -1.150397391267906
H      -0.641313744525100      0.703242939715185     -1.801838461205959
O      -0.071648647323265     -2.215680432614288     -0.396150621168581
C       0.962425376103675     -1.398241547579104     -2.295080199957673
H       1.374442116566220     -0.413959794340008     -2.836988623168113
H       0.254221045547268     -1.972401601034277     -3.001083557489435
H       1.814053814989397     -2.019749832289878     -2.016952809713896
22

C      -0.035545667106824      1.845652527179464      0.909035277316649
C      -0.864566533235541      0.726110181041768      1.545707022692510
C       0.078975837485252     -0.277454618511509      2.062359866317103
H      -1.751439641927530      1.059561851233722      2.119941771836137
C       1.236057544304066     -0.078920167361226      1.385956939971942
H      -0.196610883120602     -1.244479298683631      2.624550810048670
C       1.134125265133393      1.021316633657569      0.446121288337293
H       2.031508563670730     -0.737052367674240      1.278885166330958
H       1.954667929538289      1.325328456189610     -0.309876976802515
H       0.296272894347384      2.540417133913552      1.672681362255593
H      -0.599903467541822      2.422395853549956      0.119910009927583
C      -0.681568086045750     -0.027593129351231     -0.985779941464788
C      -1.639709740664983      0.117955682275306      0.056337944151304
H      -2.345106341584598      0.980825686081686     -0.153532270766620
H      -2.208568865155360     -0.805207560751338      0.380962430286626
C       0.068198678382655     -1.268697205591925     -1.131957779500267
H      -0.679917843617123      0.659479642039187     -1.847888693977718
O      -0.044606666761713     -2.239856549021391     -0.400954310996735
C       0.945124154044148     -1.388273289116397     -2.296690228983665
H       1.180911668528033     -0.556801494344022     -2.797299967546813
H       0.351231621524700     -1.987402098517847     -2.927160887757847
H       1.781190375704647     -2.043261325612180     -2.010760990728758
22

C      -0.047135011942303      1.856105540728061      0.905021661017009
C      -0.918243256284980      0.730866979362419      1.479969436870409
C       0.132693838773004     -0.277174460896969      2.062587487744010
H      -1.685550776562816      1.038649959682581      2.178855411786095
C       1.279971672369841     -0.070579284834170      1.382919041199688
H      -0.273658460161552     -0.985147602084895      2.727745784111036
C       1.132546849212491      0.993043132128811      0.386491082484605
H       2.204934379105793     -0.712844645898491      1.370022166874834
H       1.904726135040921      1.378498438718156     -0.226464031209007
H       0.363700724606515      2.512520201849989      1.714571910535402
H      -0.365551388724110      2.414649676497901      0.060961598000161
C      -0.654219258409724     -0.004347589449017     -0.948204569849606
C      -1.612214399017857      0.178821819271202      0.160034346906731
H      -2.353025576261373      0.879936919257512     -0.130001651325486
H      -2.112288969583110     -0.760031233495671      0.332509916202018
C       0.072790116910105     -1.278809456254733     -1.112846260111323
H      -0.660599634724498      0.639969473410531     -1.815750960183954
O      -0.024979106441779     -2.262413816380841     -0.389481646809133
C       0.939245643521615     -1.413613330276476     -2.312510067389787
H       1.119355715242178     -0.371679317906220     -2.878555938119423
H       0.397895800892933     -2.122905149728140     -3.079221194123988
H       1.870311253480705     -1.974755184940035     -2.067546078864779
22

C      -0.007308339519136      1.835406320065747      0.903321351997568
C      -0.938844656974278      0.733768750539888      1.417609657745294
C       0.126516397747237     -0.223040986125943      2.024587404304127
H      -1.605235052494259      0.987484309861450      2.260766075055657
C       1.345556061450119     -0.057385255564884      1.339591859338611
H      -0.119832824557055     -0.889487838478845      2.901359378899718
C       1.066481938331803      0.940345935806568      0.370960899490722
H       2.258638643305640     -0.689113072501345      1.572040031534845
H       1.876485432991690      1.425074079244053     -0.197283522956067
H       0.375504445060946      2.457314824520690      1.733906739683676
H      -0.401670370538893      2.533229118706843      0.091303546475864
C      -0.571788508477052      0.025255815313341     -0.866851112396208
C      -1.577502290262457      0.212970184339996      0.237623183956054
H      -2.444737983561863      0.876847563256147     -0.088083128512444
H      -2.044863805190420     -0.803211113028902      0.408726466400369
C       0.057873847882604     -1.295163762174313     -1.111013539593338
H      -0.631099911446645      0.663034883864706     -1.781802506494133
O      -0.019491939127652     -2.269745357553428     -0.363471220300308
C       0.941987108870362     -1.430845225409728     -2.369457269067476
H       1.112649373680144     -0.478724493433459     -2.854139579432039
H       0.504065163406813     -2.084902178777057     -3.087279602032015
H       1.938186003616853     -1.777679517932117     -2.146453223116940
22

C       0.036823556599574      1.831539893793359      0.899633164972597
C      -0.889366292440340      0.755445573027938      1.463406327660770
C       0.154379162377861     -0.157052872834364      1.959011247104437
H      -1.648944760075171      1.040913845810937      2.219331143862198
C       1.322533019500412     -0.072943070027567      1.366942801625422
H       0.130206329093064     -0.800891677464414      2.873297401751035
C       0.989418495907753      0.904938627887274      0.311946531204850
H       2.204712962145393     -0.579430637843769      1.534466843987029
H       1.812930925765944      1.351534467313416     -0.333288531052840
H       0.424262949791892      2.371767543318661      1.754033326896258
H      -0.500996290825301      2.548206660863432      0.292564303937109
C      -0.446608062675887      0.061415173610306     -0.766096595223438
C      -1.586761020644931      0.180246288123860      0.222035905654592
H      -2.391807008816763      0.858220121306755     -0.076152362523820
H      -1.971940359650365     -0.780768831278292      0.567674004888152
C       0.062566956966328     -1.330731174909865     -1.119015952329387
H      -0.579459791983240      0.657584986025794     -1.665389256913500
O      -0.025518190826765     -2.249040503712077     -0.336296647569582
C       0.947024399046920     -1.424508325390885     -2.409855248949061
H       1.042114732757786     -0.475603633060345     -2.953418035489246
H       0.535577151354903     -2.157661655651035     -3.152027230693649
H       1.990241405893641     -1.738395368702454     -2.110515394863457
22

C       0.035789896448949      1.861423965228469      0.943565815298359
C      -0.854241195096536      0.789924698543895      1.546040306911446
C       0.174802385351088     -0.140960705272101      1.990767615807337
H      -1.623827160673039      1.151491905645742      2.210134645935916
C       1.290407085117457     -0.050810508563968      1.343837365056954
H       0.070449633426541     -0.782740680362436      2.804856053766961
C       0.924923414972280      0.846891136508455      0.157378536391132
H       2.254077192870743     -0.600461011841391      1.473004847014612
H       1.677207666361533      1.151995189600659     -0.520875794814211
H       0.633184317924513      2.364546362855110      1.760008428065282
H      -0.563291881919378      2.558495898167227      0.328981420465463
C      -0.301649881635051      0.087841553759045     -0.664761958373512
C      -1.565467936293831      0.128546140281838      0.198073698534868
H      -2.319287807991899      0.815707280695242     -0.154771280423237
H      -1.956060620310181     -0.826807656671708      0.520896993029110
C       0.112946727275240     -1.331506059620657     -1.127365713104338
H      -0.463493982764194      0.728548857098634     -1.541906485995546
O      -0.040650896238532     -2.229748492371021     -0.318226568509575
C       0.939934018594052     -1.414367568404487     -2.429260157971726
H       0.917647924819496     -0.419616410764651     -3.059874918159409
H       0.591876213069654     -2.296959333147537     -3.084721833795286
H       1.926444583196953     -1.728463569468441     -2.087065208916763
22

C       0.044485046930834      1.898340517183081      0.975668874731758
C      -0.865756933613102      0.823441873480428      1.583858974900573
C       0.170159921881298     -0.146837498902982      2.108550744093485
H      -1.577629943754233      1.160362402888707      2.389189253326579
C       1.313462152796399     -0.007417725835440      1.258621814708228
H      -0.111176192156345     -0.950770604612010      2.897264064159556
C       0.831726837332430      0.769685106526315      0.023956829271466
H       2.211957194107188     -0.686316915505387      1.395497690949519
H       1.629298253289397      1.097745550032829     -0.706090095148515
H       0.763403031324378      2.380829419424494      1.614496738222938
H      -0.521420087898826      2.626414654883535      0.337514199088164
C      -0.181039637916719      0.095289738933612     -0.612515024249756
C      -1.472712248983191      0.109945978150544      0.233048497467046
H      -2.279180001983956      0.786776274405570     -0.286672401037821
H      -1.950054356042805     -0.911342203482158      0.308751736454161
C       0.185303526192043     -1.303612206460940     -1.102333279300979
H      -0.374899962573226      0.803337584208482     -1.465433319007386
O      -0.056293557736689     -2.210669524842707     -0.336998373526639
C       0.899231336615454     -1.427658262538328     -2.436532550211540
H       0.870708415250362     -0.572178754590729     -2.993473252198032
H       0.601723256725316     -2.289687442681328     -2.924782608271971
H       1.967761892446224     -1.581806618907714     -2.170780264604559
22

C       0.061431481149365      1.893796511155871      0.927463796616518
C      -0.875873449528261      0.830325653787684      1.612080455124775
C       0.226968180006044     -0.133238088883021      2.160869452416396
H      -1.591128102949407      1.100968148647673      2.373396618727841
C       1.257394061092992     -0.024155019221270      1.246197151585736
H      -0.015474940917536     -0.930690362441234      2.835965586190728
C       0.847416758240119      0.806335559110438      0.055277885238701
H       2.116916895954286     -0.629318531227221      1.164510936174073
H       1.571031242083631      1.177465688080458     -0.686456473612872
H       0.808524480191278      2.396477106055146      1.585372459224604
H      -0.420660543207089      2.710510982610395      0.423964407887023
C      -0.198874187693033      0.060898734775297     -0.671172708185819
C      -1.387983457655195      0.125907929111794      0.288591331016386
H      -2.062885547887408      0.716527769567004     -0.233915298122955
H      -1.789229102680233     -0.876519987404059      0.288821068703838
C       0.251167838282658     -1.271921219673396     -1.053808746008033
H      -0.410516984638966      0.660567021768064     -1.533831761259292
O      -0.059341266591854     -2.202996024535591     -0.379555980672582
C       0.880673000579781     -1.452277429011853     -2.405279493155949
H       0.722163894899702     -0.525477658343942     -3.110035110731552
H       0.500958466966530     -2.444177593597582     -2.920681990109922
H       2.013722902579778     -1.461203483165527     -2.299868249043961
22

C       0.092291531430976      1.881702737206595      0.872652289291901
C      -0.826164731889999      0.807806733642573      1.609869519050735
C       0.288222219719289     -0.090479946218615      2.149555865041592
H      -1.684011274444835      1.104330391490130      2.243306526892054
C       1.192413891135972     -0.082796153534449      1.245908404495066
H       0.236509349432720     -0.886050985213544      2.872611966464802
C       0.892227529473204      0.923195701080485      0.173186774704110
H       2.113383155798625     -0.689978073788564      1.070231940535798
H       1.680597236998709      1.301653430381086     -0.449695285162775
H       0.734983804664524      2.346648759028016      1.652295108328469
H      -0.447073099359615      2.721408447846472      0.324840706530134
C      -0.264245082084819      0.064782548328848     -0.737470131517223
C      -1.330224726897136      0.143723754008228      0.336363302706282
H      -2.127648651527388      0.849105274715155     -0.107044237326274
H      -1.696053630567732     -0.873332015256982      0.622046681541255
C       0.289331218385773     -1.262607797848756     -1.049462877474853
H      -0.527877476291611      0.481254023426504     -1.787367591664398
O      -0.053295443477502     -2.234344199346533     -0.406464048189780
C       0.885288235025107     -1.457824193744864     -2.402371074665388
H       0.492713110323267     -0.698582981828081     -3.095751821062641
H       0.558980265700379     -2.391795521406531     -2.770899570749180
H       1.923604467849432     -1.502899843635306     -2.389887846932563
22

C       0.074194284073304      1.927058060273269      0.916887628952497
C      -0.752113809905175      0.804177175430811      1.594965949337478
C       0.281085811702962     -0.067545996617369      2.167103974176218
H      -1.626952261331585      1.162664159645490      2.198039565467856
C       1.237645742169590     -0.121148903142120      1.174605595832388
H       0.405228595422422     -0.776884728032975      3.074682797655793
C       0.931707306618050      0.974959757940528      0.209829848776740
H       2.040118368950169     -0.897947086182060      1.195728458001068
H       1.913723954904657      1.368838503715542     -0.239902395212366
H       0.620803395751207      2.430665739806244      1.704333232842204
H      -0.461468748730954      2.522712708571689      0.182548366724856
C      -0.283279594263886      0.126355998642488     -0.755939694538682
C      -1.335040661695936      0.146244173862893      0.355142392064866
H      -2.248554330646685      0.737328643315922      0.117337366165047
H      -1.717825816858602     -0.794917621348134      0.754949651996676
C       0.267014866076698     -1.297190080520930     -1.071734015962628
H      -0.622276557168356      0.517978463186819     -1.686891216929904
O      -0.023956677284272     -2.269936232473457     -0.418083730470626
C       0.892465791261167     -1.457480835691085     -2.416097114522476
H       0.450408389943084     -0.788651135833302     -3.136764405001176
H       0.596463670892639     -2.507500566777175     -2.686866361049408
H       2.056847841121290     -1.477818041813916     -2.497455181110712
