22

C      -0.054358877019910      1.818292036192819      0.978000695886790
C      -0.885130400871850      0.756600608199369      1.646415371213540
C      -0.008396110223220     -0.265458063823011      2.008732505439470
H      -1.784426625062059      0.987833627452589      2.204802340157830
C       1.193718366157370     -0.113870754970751      1.298685222592910
H      -0.262245946600830     -1.114433596881321      2.628290239716101
C       1.120422421893490      1.020418721708359      0.528661857645340
H       1.993221352956530     -0.841390399401481      1.280148592263270
H       1.895057938714940      1.397305068361709     -0.125190678932640
H       0.287890694966570      2.516734345025499      1.757598249308760
H      -0.555458155466170      2.403955993682249      0.209272238163790
C      -0.700163294135400     -0.034993348405441     -1.014957068363840
C      -1.714487045356380      0.033886352619679     -0.075679580887860
H      -2.449619693011539      0.827769164010049     -0.151553653547790
H      -2.075477670016270     -0.904102434507051      0.329249252262580
C       0.037995126778830     -1.276911931387211     -1.164452438837120
H      -0.512837261450720      0.773727152348119     -1.710901131945380
O      -0.108000216134870     -2.202618371901111     -0.379100983467770
C       0.980229405324210     -1.405757663678131     -2.335145058936740
H       1.363078896085740     -0.442711049025371     -2.678088653987070
H       0.434233439777440     -1.866991205201431     -3.164376608054930
H       1.804753652694100     -2.067284250418121     -2.070410707689250
22

C       0.016995108193525      1.844228806257055      1.025619317420837
C      -0.551395590244759      1.094580249639965      2.169698686783937
C       0.013522690706467     -0.111082660689967      2.327931701308005
H      -1.425406426192970      1.403782136928909      2.735277878937039
C       1.110282309223182     -0.240647987855891      1.308119310193658
H      -0.181217960425153     -0.831218570613653      3.103893985414628
C       1.065050180342491      0.866597581599924      0.516514680166923
H       1.806987937244912     -1.049158776628943      1.373615855435711
H       1.749389520102258      1.098129161382162     -0.290521454733316
H       0.529172582676103      2.728502664918631      1.523221867851548
H      -0.634221131844378      2.173464448330670      0.212681920899943
C      -0.715047487565657     -0.057797830464160     -1.040257686370309
C      -1.894413608082812      0.051840962147731     -0.379694594449180
H      -2.532422205859861      0.936855874671132     -0.422307090557200
H      -2.226589599186544     -0.745567271861563      0.280707916904174
C      -0.038485507961009     -1.413918672899561     -1.071960983224907
H      -0.370728441736853      0.755317627770663     -1.701836684835180
O      -0.285103271499042     -2.270104366916335     -0.240681526080081
C       0.937716053002156     -1.773474341446805     -2.179144832577066
H       1.482601182763875     -0.912412000945344     -2.622261121623996
H       0.304141770301063     -2.304044195958169     -2.962877885580942
H       1.660056282185767     -2.551798262564222     -1.807692891599106
22

C       0.367015212476404      1.931170068221334      1.160045405546067
C      -0.327001833319949      1.367999429666213      2.368332478379159
C       0.140375879313110      0.090692515206524      2.560047429415215
H      -1.080182812078190      1.895088086147066      2.919410067362925
C       1.339943246462120     -0.126495804407313      1.663885692260325
H      -0.256157450103772     -0.712179183266017      3.156744569385260
C       1.485634824151746      0.946557116483039      0.862440463111120
H       1.851237817783736     -1.095182702969487      1.611913525403018
H       2.338162639611414      1.112994996082775      0.181021274709374
H       0.645950996423417      3.031823245390110      1.101637211845322
H      -0.316465683464260      1.804778869517849      0.319486931313522
C      -1.227370353737391     -0.549018720739633     -1.431523650292771
C      -2.273866229300989     -0.139210834439906     -0.739940586537914
H      -2.848403258148865      0.699238927476215     -1.142622843550266
H      -2.630806397571033     -0.658911825221903      0.116334705759172
C      -0.326062153382690     -1.695405757207259     -1.041903888219990
H      -1.003619110875214     -0.057535417467509     -2.394009907872036
O      -0.520158355337807     -2.311177228405483     -0.022623437744103
C       0.846834053474752     -1.881245512890760     -2.031732101543507
H       1.517003886108067     -1.049719180409301     -1.885496574036508
H       0.531225893480362     -1.877892898515059     -3.053688533392446
H       1.424248976298016     -2.783042075628018     -1.709681271400695
22

C       0.768007037645065      1.993405498252638      1.352701619639560
C      -0.194879641256318      1.399604560075171      2.259644067985104
C       0.320588497898255      0.262900426211115      2.732956568998492
H      -1.081645909755662      1.870492161969239      2.607807468401361
C       1.588431044364005      0.029494866983816      2.099601110709559
H      -0.021788705921222     -0.341762093024619      3.557810604250425
C       1.808098560402092      0.985565820872814      1.177568337702340
H       2.339458025751748     -0.709386585971931      2.369962430588387
H       2.583664284309416      0.860791871312077      0.425810269230233
H       1.316737367219499      2.717112377833888      1.912596561786409
H       0.372828650217480      2.570330798107415      0.492740611848323
C      -1.623206970790583     -0.970140775305870     -1.748218003583386
C      -2.619770255528873     -0.442946177025454     -0.999218052646311
H      -3.380167059634888      0.208836647427189     -1.425248952652442
H      -2.652069177050985     -0.681207658340269      0.044039229238741
C      -0.585561440647750     -1.773862492929334     -1.095600603302499
H      -1.510674245814371     -0.753311054773000     -2.813300060214294
O      -0.814810000563443     -2.050949793082248      0.061164716895111
C       0.686986937914382     -2.141526147763149     -1.824571170902280
H       1.509722419723693     -1.764447215059623     -1.195491592894292
H       0.686505218325310     -1.711170614070120     -2.784600351422928
H       0.755851030427810     -3.277730547226270     -1.852191706185939
22

C       0.973452706097477      2.010074038002855      1.349434811495918
C       0.001829617337403      1.455888700115670      2.366111012473131
C       0.445224216106688      0.303644585209614      2.876751219169285
H      -0.870619843581700      1.969056149030526      2.738990861268135
C       1.816452280705713      0.062858007876409      2.372570316488710
H      -0.087429078527336     -0.214074568086695      3.676652386115705
C       2.194069424790057      1.084901014375057      1.555283803947774
H       2.496384968426041     -0.757780656478034      2.642170267672071
H       3.157751100135979      1.181649348541250      1.088716958000713
H       1.152015474018611      3.099441932168295      1.223242191629676
H       0.663687791235999      1.692394913567326      0.324389300231620
C      -1.845555955131606     -1.219110913072008     -1.833023238212935
C      -2.972346641305056     -0.628064815623257     -1.381031144547513
H      -3.683488787518936     -0.223531078493907     -2.098597904848859
H      -3.222782151691867     -0.437821964110008     -0.338324883936060
C      -0.789450303386697     -1.786766462103944     -0.968309292633066
H      -1.678567367098976     -1.261959338977745     -2.902854072405780
O      -0.993685492185483     -1.915074568209318      0.226453257416558
C       0.448938276754974     -2.329113984248198     -1.741965207110363
H       1.221000253898983     -2.775698059839672     -1.016676189724485
H       0.890680677504515     -1.593944407656260     -2.450668996915614
H      -0.042398292776358     -3.128199058441180     -2.410684401235045
22

C       1.229562031271288      1.958390532956784      1.427640479812236
C       0.192721476785918      1.445870378690262      2.311298473879371
C       0.677220401714087      0.383463978519634      3.057691435386477
H      -0.683735427777494      2.021169995167037      2.378295512896879
C       2.008001671613317      0.089299237134922      2.630742696175244
H       0.215818288986215     -0.147772007972327      3.875184450224487
C       2.391869152074183      0.994797885890655      1.667458524858422
H       2.521958813928830     -0.763894117057375      3.067392579464442
H       3.303636244300034      1.215691391673553      1.174989689842746
H       1.539772364649510      3.007208484287274      1.826358727364148
H       1.051504200851471      2.085099924576288      0.363158922922483
C      -2.093236155384991     -1.473695465494992     -1.972886031353362
C      -3.213900404212108     -0.832216240466554     -1.607188078773672
H      -3.858204027019270     -0.337458445572044     -2.341048111113354
H      -3.620648079562578     -0.724230659497341     -0.593925933634143
C      -1.063108784410390     -1.820535659931281     -0.913584990505242
H      -1.908370803948583     -1.675907211725536     -3.032968631440725
O      -1.252368510949025     -1.562816469124606      0.255441942313361
C       0.282568535772858     -2.495221067157972     -1.459229308681872
H       0.707575756497211     -3.115979457824227     -0.653544432328545
H       1.004665125875693     -1.679179751522373     -1.681334686664391
H       0.155932138700149     -3.067638238783249     -2.347996946238167
22

C       1.522855993166733      1.810701404442454      1.410667530057140
C       0.346078987220783      1.391013303369114      2.318353578428689
C       0.787473516321777      0.414195209832944      3.104007883530890
H      -0.619119700951105      1.803418413913074      2.314619477493142
C       2.197252170888481      0.082993166813909      2.804305865877511
H       0.152020220723268     -0.026547400996639      3.877395451135741
C       2.697549169731499      0.951441460987840      1.946045162131294
H       2.936704957804606     -0.620901488664766      3.242124631000116
H       3.710128048404894      0.973964026808479      1.615004147849257
H       1.903223174495319      2.837473207465449      1.554823239137046
H       1.414051186560308      1.719968714033544      0.296512777649874
C      -2.287017418696800     -1.724878003239428     -1.977781502143652
C      -3.473160881457032     -1.057670276243893     -1.758802722297716
H      -4.307377466296621     -0.892310680136623     -2.465752981345113
H      -3.702306507922543     -0.700197022948602     -0.740233726953082
C      -1.245699257727462     -1.731837483340980     -0.879926334966852
H      -2.037075906700443     -2.011124388222011     -2.996836588857136
O      -1.467703376494396     -1.132434611031798      0.122378526740814
C       0.005510683194670     -2.558780679009516     -1.094781961133681
H       0.208561379032077     -3.247337075003756     -0.250504008478220
H       0.854087474108927     -1.906411213144560     -1.278541967728686
H      -0.166543977465088     -3.136346013479878     -1.951089103393990
22

C       1.784165851236482      1.656262040551395      1.485468838839209
C       0.605101240812863      1.297626541498548      2.231980782616142
C       0.973624299679907      0.386782128571981      3.174003326918911
H      -0.312424271552733      1.802391276421283      2.137586346251447
C       2.347975003779738      0.091820016440767      3.057304208843361
H       0.314231921231072      0.062907649606634      3.999535018556460
C       2.910721843898309      0.795510468613144      2.051153173679086
H       2.930122969747984     -0.576430839418542      3.740047262492567
H       3.954136615950529      1.005554544418001      1.828635185685706
H       1.988259623882761      2.696891186077167      1.519198712310223
H       1.629002235261924      1.474937419362249      0.406247875494926
C      -2.522115360101833     -1.879028188821113     -1.860630166387435
C      -3.665269753282007     -1.187329398837835     -2.021249273922552
H      -4.506480673561762     -1.435963307600564     -2.690106858344781
H      -3.821357994348264     -0.230800724965289     -1.483629538768920
C      -1.498911508472081     -1.605279946990045     -0.847088286140104
H      -2.269472648233740     -2.828642590639987     -2.445850979465556
O      -1.627642802472275     -0.803872475480646      0.043158502299090
C      -0.280142943875863     -2.562715139607779     -0.843251335565895
H      -0.331858461745746     -2.996677033774511      0.221994653627757
H       0.621317300718203     -1.929182049353140     -0.942806676702886
H      -0.225105446342520     -3.452205460376454     -1.477109035021988
22

C       2.089799970615137      1.444127426193743      1.400005574529983
C       0.792190342325765      1.201165086602902      2.123980810767425
C       1.007290286283178      0.373331148171868      3.209048565899705
H      -0.159621307912703      1.575751083778556      1.837133497337164
C       2.425385308924023      0.111730994586009      3.314329119408024
H       0.248718932552226      0.019022073296711      3.927136991673779
C       3.107912717026447      0.713517678184541      2.255113284158448
H       2.945123868056394     -0.378010241106425      4.178069372972288
H       4.152672394647961      0.805772035247575      1.965761102638987
H       2.310878047671415      2.601588555905869      1.452300454390909
H       2.215805075847427      1.310728905759219      0.329537115342051
C      -2.713363330048175     -2.027234785435007     -1.814213918497968
C      -3.613710314269397     -1.106941824415342     -2.086691838964361
H      -4.250839955985704     -1.386425365837511     -2.930797912625243
H      -3.763211336854422     -0.163928895471574     -1.481814015176327
C      -1.750902730170986     -1.681386343292745     -0.765499598830579
H      -2.767685991092293     -3.024805014462023     -2.360227216720013
O      -1.848141275485830     -0.636006085174597     -0.153097411304411
C      -0.537567060843744     -2.468962445506216     -0.494438065576767
H      -0.352959403949676     -2.582209778942686      0.623646320946015
H       0.261553121370502     -1.866326694327113     -0.883825039744238
H      -0.673912293940301     -3.447474857172741     -0.965955246842746
22

C       2.242770310953540      1.369754525009588      1.441309523995972
C       0.881699561690363      1.008763832276233      1.960545452325560
C       0.995711668453048      0.227321471590481      3.009317841829043
H      -0.019935151563552      1.368733987323281      1.533835073014381
C       2.396063125513929      0.192386897349043      3.413866173322007
H       0.206262441424566     -0.251762257834864      3.603015544693421
C       3.146295627395133      0.804332739041813      2.532949646913209
H       2.828029798036825     -0.358987077886562      4.234308919402676
H       4.223585427382601      0.963959284853172      2.679131756980967
H       2.283386698899611      2.439227600266929      1.291292151831014
H       2.392112015982787      1.072538378393920      0.369944161936889
C      -2.712436977026182     -1.994862919292630     -1.711890924224023
C      -3.674322827876295     -1.240604294449080     -2.174042076468927
H      -4.314856066030699     -1.421787672921313     -3.038824035973651
H      -3.673070248111414     -0.253885104550716     -1.647555250979383
C      -1.809123547660092     -1.560173049461608     -0.645274776168087
H      -2.312912599198764     -2.927038579298321     -2.131832258202620
O      -1.886153294979283     -0.453669752786455     -0.113749266445685
C      -0.731965325828366     -2.584965135610778     -0.294606729761456
H      -0.180813678761310     -2.175201970680191      0.523078415712413
H      -0.016521409292664     -2.631104752429564     -1.121327697804537
H      -1.164629552260646     -3.600832239920823     -0.184319265980716
22

C       2.298458570279699      1.354568597769333      1.599059756188536
C       1.011350183676482      0.647599456085633      1.687392251116637
C       0.983896253037346      0.038937230657847      2.946676853349085
H       0.193065201487899      0.707173983090346      0.997247665532659
C       2.297969701023235      0.216577953146156      3.570133018420931
H       0.152469040215417     -0.490719381281018      3.423608515224552
C       3.092857764801918      0.984543799278296      2.733527910044240
H       2.608054611302461      0.081239727883349      4.585006605855753
H       4.115320279377738      1.318883714895466      3.005293243856179
H       2.162867152610371      2.465356830416106      1.682072045348908
H       2.757363721960524      1.171588440619026      0.610952784367085
C      -2.673625836448748     -2.034511844740740     -1.830276566708697
C      -3.660893815613268     -1.222080417265509     -2.242343402821608
H      -4.383582249978672     -1.578030661765941     -2.963569295463482
H      -3.785410056969146     -0.230346178000709     -1.786264196145671
C      -1.783588577795221     -1.526921613874378     -0.621371310238283
H      -2.555399720293064     -3.016225127952020     -2.237776931162276
O      -1.913263312561676     -0.394758673562115     -0.163944564774357
C      -0.819863907678038     -2.489098307514050      0.052969184818769
H      -0.078464397632522     -1.910421314889035      0.571652546169792
H      -0.452911523278021     -3.153705129754452     -0.746939689392874
H      -1.415768612047445     -3.235499567827049      0.640957305703295
