22

C      -0.054358877019910      1.818292036192819      0.978000695886790
C      -0.885130400871850      0.756600608199369      1.646415371213540
C      -0.008396110223220     -0.265458063823011      2.008732505439470
H      -1.784426625062059      0.987833627452589      2.204802340157830
C       1.193718366157370     -0.113870754970751      1.298685222592910
H      -0.262245946600830     -1.114433596881321      2.628290239716101
C       1.120422421893490      1.020418721708359      0.528661857645340
H       1.993221352956530     -0.841390399401481      1.280148592263270
H       1.895057938714940      1.397305068361709     -0.125190678932640
H       0.287890694966570      2.516734345025499      1.757598249308760
H      -0.555458155466170      2.403955993682249      0.209272238163790
C      -0.700163294135400     -0.034993348405441     -1.014957068363840
C      -1.714487045356380      0.033886352619679     -0.075679580887860
H      -2.449619693011539      0.827769164010049     -0.151553653547790
H      -2.075477670016270     -0.904102434507051      0.329249252262580
C       0.037995126778830     -1.276911931387211     -1.164452438837120
H      -0.512837261450720      0.773727152348119     -1.710901131945380
O      -0.108000216134870     -2.202618371901111     -0.379100983467770
C       0.980229405324210     -1.405757663678131     -2.335145058936740
H       1.363078896085740     -0.442711049025371     -2.678088653987070
H       0.434233439777440     -1.866991205201431     -3.164376608054930
H       1.804753652694100     -2.067284250418121     -2.070410707689250
22

C      -0.101777288377632      1.828290610128736      0.921612956949660
C      -0.926229628410047      0.656375991534418      1.460193144802835
C       0.069875077288354     -0.287724272752362      1.947839802902814
H      -1.680231770427891      0.872857921642009      2.243802684278161
C       1.263302196305500     -0.051261342851016      1.298474947831781
H      -0.049654898464646     -1.140434512959649      2.600573191952751
C       1.140866955412996      1.103424443864168      0.528721227059338
H       2.157087475866135     -0.685764284801992      1.296394631927173
H       1.912895331377987      1.518608210674214     -0.117596053501190
H       0.161598307981092      2.537870149599398      1.755367335610815
H      -0.491515199411493      2.422500573811268      0.123844710951386
C      -0.785911328931015     -0.157827755610056     -1.005184379060422
C      -1.760140408408104      0.037084377120459      0.051589195952611
H      -2.378951183412565      0.934943818832176     -0.129045814606449
H      -2.351821810521304     -0.817981215133235      0.469138677011088
C      -0.050457461269762     -1.354869141055873     -1.222573740411082
H      -0.663352693667157      0.654255091676068     -1.715454268135195
O      -0.253900673939458     -2.321385191914294     -0.437994004692424
C       0.871907733205133     -1.389586790702947     -2.390641939837744
H       1.235885806849734     -0.425792881881217     -2.765845474637623
H       0.238439645550295     -1.793698973539470     -3.131250037558845
H       1.645998491977403     -2.039967775295620     -2.234413268159793
22

C      -0.185380721822408      1.845973586813042      0.951599031914290
C      -0.994488188576072      0.629829367282511      1.484086298983737
C       0.068314586686285     -0.304671515537839      1.894553243286745
H      -1.801656300487315      0.706032103728961      2.231726426971489
C       1.193479787802443     -0.006760234579793      1.197961652121068
H      -0.125204469828419     -1.215236488935041      2.530562742700021
C       0.855578870244786      1.045748065012950      0.289809202148519
H       2.141074825043197     -0.576492928204506      1.217815555628795
H       1.677157505255439      1.553129868289408     -0.291297228307634
H       0.301990482666355      2.474444380701595      1.753465623853599
H      -0.771712600537582      2.539811892235624      0.239584450615775
C      -0.645292226767425     -0.028419551241065     -0.929141864464682
C      -1.639969417329013     -0.105260077523903      0.141732609271807
H      -2.605031270796054      0.469914193287137     -0.049924236793338
H      -1.869722714041900     -1.099640182245643      0.522455068595908
C      -0.121736862349548     -1.345527724841164     -1.253952625806609
H      -0.677319470258988      0.732194428682773     -1.751536092676012
O      -0.265191727070885     -2.319069303101373     -0.536707270396448
C       0.805434600361515     -1.503257145817916     -2.394136396214223
H       1.488446146465965     -0.681238820712966     -2.505064167890056
H       0.219928009407396     -1.593077521414134     -3.310053740156380
H       1.218530623193695     -2.496864154098300     -2.289961868094062
22

C      -0.442791954141170      1.751395589261252      0.910521909832830
C      -1.059123133553347      0.502314980934078      1.610328138351761
C       0.172498909858655     -0.189284523958987      1.978992179468565
H      -1.862342245382757      0.606363890831771      2.290758708362672
C       1.077314206048652     -0.053882832619353      0.991333772771367
H       0.189797139505092     -0.795275164480589      2.852331755742728
C       0.617205290806683      0.989073426948299      0.104122219299575
H       2.011340155749387     -0.571012277455384      0.900093928495065
H       1.281526215553030      1.564066302436090     -0.464059952947097
H       0.135411161866633      2.460550797549219      1.570751804872707
H      -1.209330518595202      2.361532798402371      0.258945649373882
C      -0.600877680068065     -0.096218433961127     -0.929483282499637
C      -1.670050293132841     -0.092243619110663      0.219542444561792
H      -2.474036431487458      0.612887620536831     -0.098507430867394
H      -2.157752497432467     -1.095937940075502      0.306041535686874
C       0.077987829710924     -1.347413362885143     -1.211301174047159
H      -0.786760471855752      0.476962858048328     -1.832713967842435
O      -0.273487827184489     -2.255358293517672     -0.545128724922659
C       0.857326836474945     -1.551422760456467     -2.512483418681334
H       1.868796298598550     -1.179255934964461     -2.706041759707720
H       0.079855761224251     -1.042851735562533     -3.153027216865202
H       0.951419433637597     -2.687880146283570     -2.696885744474760
22

C      -0.456458088133077      1.677646012185578      0.737230073934040
C      -1.160568375137655      0.508274518679303      1.543716785987509
C       0.097338512333992     -0.251916697507455      1.771092561236641
H      -1.691900707757772      0.734114481508029      2.464493419504036
C       1.120682090135896      0.145865214610348      0.976069469333559
H       0.180865690654828     -0.931176711991013      2.656499611409002
C       0.434086331515658      0.865779775691314     -0.158444103366882
H       2.208823069572061      0.030592710334441      1.156722722601915
H       1.127967256468290      1.453592949608329     -0.821489390945974
H       0.114632861443652      2.391345227911644      1.383094414070145
H      -1.240591691798421      2.312428192160189      0.206048496962680
C      -0.637785069832813     -0.054630427158773     -0.764340095396262
C      -1.726765578511102     -0.214309660435332      0.336697820679736
H      -2.700412799133799      0.163048950838067      0.079600462307117
H      -1.785480700906268     -1.318362111738512      0.567668503739170
C      -0.095133764152491     -1.436287309682861     -1.263846682805804
H      -0.978843472181158      0.528307556875699     -1.644207343394699
O      -0.159793502658592     -2.394894470969690     -0.579034842494643
C       0.852331873477406     -1.416626267804704     -2.348730019128975
H       1.835455025565454     -1.051832039368563     -1.931624063469147
H       0.644625079693253     -0.586372107581093     -3.121430181721489
H       1.029649243495389     -2.414790407545866     -2.819229537062562
22

C      -0.684795262636461      1.663072320067900      0.648986359262006
C      -1.162291707674010      0.523001930075892      1.509014526545944
C       0.205204611332204     -0.053746525370290      1.878700187710581
H      -1.795316628594250      0.684176958763326      2.450306273934551
C       1.011116308551467     -0.035912454142580      0.816376225826145
H       0.442739843131734     -0.508650194773300      2.817794945498858
C       0.259755974219270      0.836155949178695     -0.261173190487545
H       2.017157529821963     -0.469140296558842      0.757953299155316
H       0.885410844808742      1.382224371702807     -1.082092155204581
H      -0.074493959616150      2.365323898676390      1.225503273017182
H      -1.400945800532468      2.154764894821100      0.011413786906584
C      -0.665424263323069     -0.175675879706599     -0.812286530932365
C      -1.776931626606931     -0.305073525641143      0.337274407334697
H      -2.764669404305413      0.061673531183946      0.003837084055644
H      -1.864078481769256     -1.364000726935124      0.430875444490565
C       0.001665644996946     -1.452968031910377     -1.197154133605545
H      -1.205957123643375      0.287097468970990     -1.670977689294610
O      -0.176034006953229     -2.512685721679671     -0.604562578658307
C       0.971483709293612     -1.232156006299434     -2.274753227218774
H       2.033683384611834     -1.383064456538249     -1.829728498110403
H       0.837534429350180     -0.136396898308875     -2.490561088306681
H       0.754429269013211     -1.736719797662509     -3.199602409762898
22

C      -0.818506018999194      1.751384011700297      0.519968915774681
C      -1.203495688304948      0.559683372376042      1.428219965887624
C       0.150069566389042     -0.019955000514540      1.873548616246006
H      -1.892738582881964      0.902219113464977      2.280200090726031
C       1.019227352349138      0.251168129093013      0.911246976870782
H       0.165464790496526     -0.841559700778084      2.594501814163864
C       0.096334432396700      0.819612978636869     -0.320372841469437
H       1.962879730454131     -0.243021547897622      0.736195678232199
H       0.471549011254641      1.330899155816277     -1.253225850899172
H      -0.240560170448566      2.430745194175827      1.144209157098915
H      -1.473352598769930      2.404285299706531      0.001804620825246
C      -0.893721371531096     -0.260390652355352     -0.765132541663163
C      -1.853923759489287     -0.511293652959124      0.448806269432146
H      -2.938505600560770     -0.370013851903877      0.183870705083200
H      -1.728794540008537     -1.532377259908744      0.825707718147660
C       0.116838933287107     -1.494468094137469     -1.215032852950611
H      -1.378486046994266     -0.149698029246563     -1.781451515034776
O      -0.160160746816258     -2.642659812211516     -0.805765959463214
C       1.218786719811533     -1.259756856488597     -2.221026228922614
H       2.199444804823987     -1.736870921504267     -1.873185322487852
H       1.345323960302519     -0.188761209056939     -2.294684273227360
H       0.956438359623072     -1.729038652708985     -3.202290146312343
22

C      -1.128017435240817      1.721941943613300      0.421488866980742
C      -1.254685128472897      0.422245612934752      1.401050253430718
C       0.228208422086094      0.158761219629802      1.952321720904984
H      -1.947003548308627      0.622261556938964      2.176658863734604
C       0.984018002803402      0.333804700193164      0.871167695581268
H       0.403954672587817     -0.335902132119553      2.931431941188266
C      -0.016002276270396      0.984265078523930     -0.323388719316390
H       2.010154597540605     -0.018623920057969      0.646440026541828
H       0.465688345513345      1.533516988363905     -1.118822439240341
H      -0.886299928637783      2.528165278933836      1.114257668020336
H      -2.084192161816676      1.816941426380566     -0.149674004680180
C      -0.716501063263930     -0.341833989995267     -0.830890382801111
C      -1.720622999832408     -0.635087951681820      0.332372726533492
H      -2.832835747919931     -0.379476090839395      0.243147180455112
H      -1.590428064802177     -1.703935517959922      0.677177663522569
C       0.092779126467570     -1.545428097445753     -1.148249623985673
H      -1.355847444792375     -0.105040847055551     -1.769237769882106
O      -0.249868825709245     -2.722248335840205     -0.907718393923547
C       1.220553777384016     -1.341627958056842     -2.145738217903792
H       2.158842684923876     -1.571730511296321     -1.679937856074722
H       1.258450655047260     -0.247999941431205     -2.270339511876489
H       1.185747281181766     -1.809784799560736     -3.185159305227779
22

C      -1.192378232214387      1.539882181931549      0.408038493357640
C      -1.374422194366769      0.286540635722728      1.334682483609489
C       0.085681893222658      0.140192467020287      1.847810112528890
H      -2.045868541138625      0.422892666229031      2.142963526241768
C       0.906404048180051      0.644590279159367      0.809524336917243
H       0.358555906703232      0.071778476910317      2.903428947014773
C      -0.104053830918702      0.954249210109631     -0.434639028725948
H       1.935770297927838      0.968561698699698      0.939732858872376
H       0.366601519277845      1.520423989583711     -1.190649281752860
H      -0.861364621043239      2.438402714308938      1.039605575476284
H      -2.195156494705595      1.901269690235016      0.006018119131853
C      -0.782578435153543     -0.362229776756300     -0.797819040316042
C      -1.714420083267827     -0.789923524100413      0.416790421951232
H      -2.798769510640352     -0.730788714992278      0.091782694539561
H      -1.608152203456580     -1.885753292795880      0.576727455250863
C       0.089595741010058     -1.515689567505329     -1.289435439973472
H      -1.420887196318707     -0.228727861060672     -1.696599120126774
O      -0.190187456744492     -2.636583785488208     -0.906566144360091
C       1.383012118644419     -1.435216316036322     -2.073344809831522
H       1.963868926773413     -1.482905813947556     -1.186617990440592
H       1.642448836700663     -0.372170596590026     -2.296349276790741
H       1.690849344532317     -2.213970743283529     -2.772402586280828
22

C      -1.489400879282234      1.448156955175429      0.408626124823214
C      -1.452679019347391      0.326223826644269      1.415939487708006
C      -0.001074512268092      0.139763256052280      1.716982374937768
H      -2.351162550119155      0.394573974524882      2.164569582031453
C       0.734828491830178      0.525700786020539      0.631404173144410
H       0.299626259938970     -0.440430913922935      2.560938996394079
C      -0.229661035872738      1.074637765454538     -0.458198194078775
H       1.766135871392839      0.180374820965043      0.463868892645863
H       0.128134202181840      1.770594296010047     -1.225703967958848
H      -1.250347255983950      2.445093233508726      0.787353482164168
H      -2.478952816261634      1.430068059524541     -0.138062500623730
C      -0.735739714642048     -0.310595280226248     -0.841868135440200
C      -1.621061200988108     -0.803170113767171      0.454639474659325
H      -2.610530874668713     -0.850558299000965      0.055751294076505
H      -1.327256100357525     -1.761063664843046      0.791926780530847
C       0.277639320178730     -1.597579068851792     -1.148416616597129
H      -1.288820707718683     -0.437524967582145     -1.750228593778269
O      -0.145923670770780     -2.713904534412596     -1.013820479070511
C       1.519719922649649     -1.301139547078178     -1.938898824431708
H       2.244218734829404     -1.213711145389968     -1.167354101060216
H       1.524262038271774     -0.283401724823646     -2.343345955238968
H       1.864437335406525     -1.952810441008878     -2.708347293176612
22

C      -1.408805365327974      1.353868446945742      0.382239110094080
C      -1.501062351411573      0.178872137084344      1.334751650049016
C      -0.011926624266433      0.297754939872977      1.728098843659659
H      -2.294963739869124      0.305732175601522      2.208598778535126
C       0.752780182204392      0.773359464767330      0.730228212086284
H       0.327133602643052     -0.177801385167753      2.698926171015442
C      -0.298237818702979      0.823656289423162     -0.533972509808799
H       1.814638763675708      0.847367027228543      0.484560893607679
H      -0.068845337347767      1.571048727187629     -1.379595499821847
H      -1.062074814540122      2.240658176505939      0.927670857637408
H      -2.384470095045835      1.674323556428289     -0.014497582617178
C      -0.963297361443462     -0.502765556298155     -1.002552197345547
C      -1.851849423051600     -0.980919810458777      0.294242717572181
H      -2.901638576538006     -1.154303227390224      0.300858200810949
H      -1.475186241923855     -1.971784446284548      0.593076777910715
C       0.229378499369054     -1.545619561330696     -1.167046104120974
H      -1.651951052323183     -0.361088274148146     -1.791414783052207
O       0.075181486774952     -2.726136372329581     -1.042664445069345
C       1.554931715150478     -1.088698420893566     -1.779536997335696
H       2.062825505106280     -0.882560014121269     -0.910697607645306
H       1.461640928889967     -0.171581687835234     -2.298023581656715
H       2.070729045494989     -1.929927293609647     -2.223653995079427
