22

C      -0.054358877019910      1.818292036192819      0.978000695886790
C      -0.885130400871850      0.756600608199369      1.646415371213540
C      -0.008396110223220     -0.265458063823011      2.008732505439470
H      -1.784426625062059      0.987833627452589      2.204802340157830
C       1.193718366157370     -0.113870754970751      1.298685222592910
H      -0.262245946600830     -1.114433596881321      2.628290239716101
C       1.120422421893490      1.020418721708359      0.528661857645340
H       1.993221352956530     -0.841390399401481      1.280148592263270
H       1.895057938714940      1.397305068361709     -0.125190678932640
H       0.287890694966570      2.516734345025499      1.757598249308760
H      -0.555458155466170      2.403955993682249      0.209272238163790
C      -0.700163294135400     -0.034993348405441     -1.014957068363840
C      -1.714487045356380      0.033886352619679     -0.075679580887860
H      -2.449619693011539      0.827769164010049     -0.151553653547790
H      -2.075477670016270     -0.904102434507051      0.329249252262580
C       0.037995126778830     -1.276911931387211     -1.164452438837120
H      -0.512837261450720      0.773727152348119     -1.710901131945380
O      -0.108000216134870     -2.202618371901111     -0.379100983467770
C       0.980229405324210     -1.405757663678131     -2.335145058936740
H       1.363078896085740     -0.442711049025371     -2.678088653987070
H       0.434233439777440     -1.866991205201431     -3.164376608054930
H       1.804753652694100     -2.067284250418121     -2.070410707689250
22

C       0.013007530359661      1.876212541573252      0.953446826359849
C      -0.883957497409126      0.821477267550569      1.613195185940518
C      -0.037902407541214     -0.194299488534221      2.078159195012345
H      -1.807929789718238      1.017529112636322      2.149245013479077
C       1.229414738186890     -0.076124644047668      1.333544953228340
H      -0.231209692904533     -0.866111046550571      2.928076741052028
C       1.141142811245207      1.006673052834619      0.478765058716439
H       1.992766891501959     -0.793448407124099      1.250519143239147
H       1.955845806955828      1.401019927458133     -0.145570185426680
H       0.398008071645507      2.546224588274787      1.769014036897440
H      -0.447659973650605      2.536706777228465      0.243864036578272
C      -0.633602261462159      0.099914279209793     -1.023875358578724
C      -1.741597715427396      0.208039311647093     -0.159811091076489
H      -2.398042584632492      1.061662647442908     -0.244074312724275
H      -2.155818041350918     -0.680535209848433      0.303747795255799
C      -0.013811894050655     -1.234579301662748     -1.230324330255871
H      -0.365259281219336      0.870199109452685     -1.736787973699323
O      -0.203201199032237     -2.180167236734815     -0.491751862670027
C       0.970338929666633     -1.521634909838713     -2.373629863562649
H       1.237085305015996     -0.652730517072164     -2.978210297601537
H       0.355554110727142     -2.176956838078568     -3.007389088611841
H       1.890184573868201     -2.026638372226364     -2.061038161231325
22

C       0.035108962561827      1.928777542394196      0.924988162630553
C      -0.900690506199910      0.934186190569141      1.547967130856182
C      -0.043824459677567     -0.101640679296038      2.023705870494237
H      -1.719018456691422      1.181394788092480      2.224931426246232
C       1.171114191032902     -0.097391843656224      1.302260702093466
H      -0.222099966470964     -1.039497713500957      2.554959156867749
C       1.109107393591673      0.998000613551391      0.443391729450068
H       1.971539232234377     -0.780529347384720      1.422910599088404
H       1.983542732605904      1.363049140443701     -0.199684862442219
H       0.410633675715122      2.592714050660042      1.739783574240770
H      -0.422520802909854      2.542338193116733      0.182964926821148
C      -0.484114116413780      0.110966594555701     -1.067362190489837
C      -1.547942613866891      0.330144419357193     -0.128023078875722
H      -2.106759567082934      1.217280459419054     -0.307796538741886
H      -2.229118648882255     -0.531782721653110      0.023552084169460
C      -0.036185982535901     -1.248571270313503     -1.243693180536970
H      -0.241447927289501      0.797201330576509     -1.877848255000160
O      -0.383001067186104     -2.108162315741686     -0.459376092775178
C       0.899554643204132     -1.492047978224814     -2.460121198051430
H       1.147994347080070     -0.623810930454253     -3.057066862399288
H       0.608412290080557     -2.387893624916668     -3.050837885213734
H       1.858736265387508     -1.649205209434446     -1.918460307674716
22

C       0.143563027989971      1.984892857274263      0.862988287620264
C      -0.916284442143669      0.960077169842585      1.257422585595083
C      -0.090875992723534     -0.147646702305878      1.899043335645287
H      -1.675448840516477      1.242160433665940      1.993342101850326
C       1.089893065084274     -0.113094820197232      1.280728926584348
H      -0.294988835122057     -0.893804315149596      2.670794490657985
C       0.974337536965366      0.928608671483398      0.171795460178986
H       1.805308147901582     -0.924275034397286      1.323242550031123
H       1.962532727576434      1.239792216482689     -0.374379725207853
H       0.647524665892794      2.429047824778609      1.748769477618495
H      -0.233738018093641      2.723960848536469      0.198966493999003
C      -0.217130587993853      0.323414232049077     -0.801390888381953
C      -1.485250832437556      0.511034569886692      0.012667339105014
H      -2.316336624977011      1.029001757361515     -0.379841880161155
H      -1.958529912627462     -0.497113290338375      0.194205165486662
C      -0.022859240836452     -1.163435656936573     -1.188170486551213
H      -0.355146524819878      0.865854598360586     -1.755916832715477
O      -0.491704132004385     -2.036614539956100     -0.514960547989857
C       0.858274162800194     -1.507206189800590     -2.398484243406293
H       0.800217935632440     -0.782393443532334     -3.178088922919201
H       0.563451780053872     -2.546579654653350     -2.707842227726802
H       1.930366237797228     -1.431901190877675     -2.093656084759883
22

C       0.268988768187540      1.977841996385804      0.827157180562946
C      -0.930514521172392      1.123816346078277      1.350753483968269
C      -0.124244518253173     -0.043003094582180      1.851221966867822
H      -1.694377049302233      1.557182428354253      2.039083072709280
C       1.050103821287907     -0.214179242340539      1.144966785769224
H      -0.518803200165670     -0.746900406730836      2.565026449786573
C       1.020055792098621      0.869350351759338      0.146699661742092
H       1.906374280564831     -0.909588995298274      1.183651637395417
H       1.944383977494615      1.028898786615767     -0.526970665067925
H       0.986663213288712      2.347797990276333      1.605522234689600
H       0.035282962255099      2.819505486780825      0.193745904342314
C      -0.299622474255410      0.319280730743140     -0.925373597616361
C      -1.498559714345928      0.553684352334759     -0.044346954322882
H      -2.171862962209831      1.201351910692315     -0.546889990113470
H      -2.135810110156254     -0.364059685866507     -0.003102153729944
C       0.030030951532553     -1.077106042549210     -1.163326707020709
H      -0.254121729239426      0.915425678014259     -1.856935242174319
O      -0.573286947528546     -1.930979185016217     -0.589159600490329
C       0.876120078529495     -1.466506529498539     -2.253862568916214
H       0.517196909114954     -0.901128275537556     -3.104999797307563
H       0.555421530046523     -2.538828161981192     -2.327333763960325
H       1.985573636293533     -1.255139377387589     -2.199313210649847
22

C       0.304897603172116      2.051763315704147      0.786492319470024
C      -0.794968500850487      1.161660284511852      1.354002773085473
C      -0.128600687430165     -0.026376117269485      1.910204683216520
H      -1.402399582008446      1.814029729922027      2.015765831645541
C       0.963574445318051     -0.236384162521040      1.130391570361023
H      -0.632948420606118     -0.681161675982210      2.590143756094871
C       0.981314301473164      0.853271856492317      0.038544111189721
H       1.584406594014922     -1.164175106629613      1.117560500261475
H       1.875909770701397      0.925508555536793     -0.682198157362453
H       1.011190859072306      2.436060376880956      1.579101379585866
H      -0.113736734414324      2.875012084792944      0.263161620828398
C      -0.218748221184999      0.467217426642083     -0.940871946763531
C      -1.502552639372830      0.779868014132136     -0.031055528066526
H      -1.986329495033572      1.657822829753352     -0.417415467099172
H      -2.260745313372069     -0.015116905089588     -0.104303052916026
C      -0.150773154742578     -1.133882267139314     -1.277935418275258
H       0.005457732145535      1.176079974830573     -1.786340885060715
O      -0.683098422227557     -1.983867251884389     -0.563135378771470
C       0.976801259581143     -1.471220721722833     -2.364341167849556
H       0.933468304528654     -1.170728019075247     -3.406900613730588
H       1.378479985731635     -2.537626613895541     -2.319190442806798
H       1.751627409522709     -0.779092930273890     -1.896330828759413
22

C       0.425835598248976      2.005981928534554      0.784556015106892
C      -0.769971280169225      1.240325566327626      1.274981765771895
C      -0.091863557040249      0.004576377269436      1.852698153170098
H      -1.534034843038852      1.799998088145714      1.874465425496232
C       0.962091142610072     -0.200852453860082      1.098670324061197
H      -0.385568136358184     -0.607010299801045      2.687094802145568
C       0.936821430869194      0.776663373115518      0.045057123869629
H       1.591301900534949     -1.069068931646008      1.351939633431676
H       1.946880676626132      1.013220233079886     -0.508380603409227
H       1.120581465330624      2.324448387302784      1.617099154513758
H       0.320863179122303      2.796791415299253      0.070498785692064
C      -0.331441355893249      0.371736523241753     -0.899047939339033
C      -1.412500264983711      0.932149789259784     -0.047499489397340
H      -1.861197583107669      1.763055502896828     -0.584695434931915
H      -2.132941842613031      0.127128680968016      0.119075886970015
C      -0.096815469876042     -1.006322039695009     -1.216786835192459
H      -0.341533945537761      0.886609152897167     -1.898952965931393
O      -0.767216726309101     -1.912209739657289     -0.813165284239205
C       0.910232161334613     -1.338739961652094     -2.241308244116293
H       0.279229237274642     -1.384304799050896     -3.120955470541975
H       1.138091846293859     -2.449137521682425     -2.183547286262775
H       1.839231654860762     -0.734854416352576     -2.474200866726720
22

C       0.566921209315032      2.046783224115285      0.749705751716468
C      -0.730321242613189      1.316669781583225      1.361283816902742
C      -0.096970616523971      0.046320507074033      1.840026357544835
H      -1.453583333821956      1.738203779577644      2.094586079320502
C       0.999102031951464     -0.225171277432138      1.138766681007805
H      -0.603630635829411     -0.552675835786745      2.603344835249889
C       1.049134812487110      0.816705742170688      0.015700798288237
H       1.619359589572121     -1.158225324328799      1.272365445852030
H       2.093830835911596      1.035540501636620     -0.474818983945922
H       1.259110001817577      2.355191064129627      1.600947698816323
H       0.449429097588657      2.873698732004289      0.056943853235092
C      -0.179211450725040      0.523989531198499     -0.896165081645252
C      -1.565990187525212      0.875307250184613     -0.110277814461210
H      -2.130233205809132      1.739516490720429     -0.538484433199339
H      -2.078685534394829     -0.058789922625188     -0.019807977993908
C      -0.203482928416310     -1.006230683618158     -1.305058086046984
H      -0.256541692834487      1.169405244446535     -1.787915003136874
O      -0.956148491178496     -1.842962240108056     -0.895393049869714
C       0.880041112792307     -1.320564853949299     -2.308229407559944
H       0.440021167884827     -1.600724311040588     -3.256163678821804
H       1.532165910205668     -2.238274329728615     -2.217230954200397
H       1.625015766034220     -0.468760980563613     -2.381718872486733
22

C       0.513418942073681      2.047613474119098      0.796990333310944
C      -0.682581945354750      1.339260764201546      1.288139636349490
C      -0.104392042377103      0.033387383576701      1.893385005677032
H      -1.411384089959908      1.931859691421651      1.876047550087538
C       0.967392093201854     -0.245317213655247      1.156998512242629
H      -0.736742504449716     -0.400765618010343      2.679004550197813
C       1.031845732816150      0.800912024242402     -0.016275423528497
H       1.695632129755450     -1.096805866569828      1.144381299570851
H       2.022144089741113      0.942500302109309     -0.624869157428216
H       1.089188857334379      2.366537516193477      1.702103198093819
H       0.111047612425631      2.947264705448895      0.381961245907447
C      -0.151651168697685      0.504210422103685     -0.939648233104573
C      -1.291866346742287      0.842466339471449      0.045441196652737
H      -1.682798318729940      1.806212048072276     -0.344040097992782
H      -2.036965076557592      0.098461932718607      0.271430765229648
C      -0.258741058928482     -0.887974332219441     -1.463608519013724
H      -0.171517261202703      1.266774179996912     -1.714541495524582
O      -1.105163311081697     -1.625271930504137     -0.992622015439869
C       0.864827624405498     -1.303324027193304     -2.460367691897881
H       0.557955118428040     -1.955059334251777     -3.284085027165119
H       1.521824643962224     -2.034620552207814     -1.909164529751631
H       1.621250353283579     -0.476089862658311     -2.652443843991777
22

C       0.636525561688790      2.024826777270289      0.811635608948621
C      -0.733592223084870      1.349406193301923      1.385416385793589
C       0.063740492223992      0.064759103087951      1.971360755873965
H      -1.289838846168228      1.890055131647739      2.180949310091551
C       0.967458576236590     -0.254036106033798      1.039484086360445
H      -0.138281011930369     -0.541241961566274      2.881603660800192
C       1.101950479727164      0.809301022961462      0.102948480778889
H       1.523643410219208     -1.203305836031206      1.018635470840381
H       2.100283670620029      0.823191534608982     -0.454482733716768
H       1.353213557210674      2.438285019161071      1.561488648032922
H       0.297769912343129      2.794139628946786      0.133231955784650
C      -0.203995465428003      0.642282798741454     -0.945331944363332
C      -1.423940927753562      0.926109010123337     -0.052497367372147
H      -2.137170068768504      1.705347046222282     -0.403265167398072
H      -1.813717541406388     -0.044300736923474      0.161859403061179
C      -0.212759032546088     -0.757803974164832     -1.477012053673472
H       0.118447761365909      1.325247604338271     -1.691155918743045
O      -1.154663215749054     -1.513294762306949     -1.232255262215113
C       0.716345702271177     -1.370476806354302     -2.462102623909051
H       0.063312926333204     -2.166641783403785     -2.858808996350840
H       1.577534889582590     -1.897562759540296     -1.980037245473338
H       1.185516779057599     -0.595182918464962     -3.128613263798702
22

C       0.672132800122909      2.088277659259988      0.853709491902539
C      -0.630534302593568      1.297400636357571      1.357152831452542
C      -0.010423501524958      0.085949371113646      1.870654077455947
H      -1.108726443771374      1.738629363127128      2.230229933367461
C       1.006740886063841     -0.312204622879818      1.107232097378742
H      -0.477793393468310     -0.478979164201009      2.690844764208308
C       1.098614074759738      0.914415784801206     -0.029384809675241
H       1.546603538738706     -1.241217659791724      1.331292893478925
H       2.111096848648391      1.010837790653959     -0.545627653156737
H       1.486643544758257      2.204606296140477      1.593780780721279
H       0.533576907334881      3.017555315312800      0.297819687932389
C      -0.177884885848356      0.626660445023781     -0.923650645955684
C      -1.271022987252137      0.977137730093810      0.082780430895455
H      -1.661112501724317      1.976938081598113     -0.172290491318506
H      -1.993367087992489      0.200316551850753      0.065042281339366
C      -0.355113565926696     -0.749300429430145     -1.618588089462760
H      -0.297797055574681      1.328910351266348     -1.713596122742744
O      -1.316274096867125     -1.454903784119333     -1.304090559708780
C       0.740010342588422     -1.291795383855800     -2.499319723788290
H       0.436744230903607     -2.331099210316832     -2.762267293080274
H       1.724975315360329     -1.319070798342683     -1.951105298788969
H       0.963079713692550     -0.563631729300628     -3.320696676104660
