22

C      -0.054358877019910      1.818292036192819      0.978000695886790
C      -0.885130400871850      0.756600608199369      1.646415371213540
C      -0.008396110223220     -0.265458063823011      2.008732505439470
H      -1.784426625062059      0.987833627452589      2.204802340157830
C       1.193718366157370     -0.113870754970751      1.298685222592910
H      -0.262245946600830     -1.114433596881321      2.628290239716101
C       1.120422421893490      1.020418721708359      0.528661857645340
H       1.993221352956530     -0.841390399401481      1.280148592263270
H       1.895057938714940      1.397305068361709     -0.125190678932640
H       0.287890694966570      2.516734345025499      1.757598249308760
H      -0.555458155466170      2.403955993682249      0.209272238163790
C      -0.700163294135400     -0.034993348405441     -1.014957068363840
C      -1.714487045356380      0.033886352619679     -0.075679580887860
H      -2.449619693011539      0.827769164010049     -0.151553653547790
H      -2.075477670016270     -0.904102434507051      0.329249252262580
C       0.037995126778830     -1.276911931387211     -1.164452438837120
H      -0.512837261450720      0.773727152348119     -1.710901131945380
O      -0.108000216134870     -2.202618371901111     -0.379100983467770
C       0.980229405324210     -1.405757663678131     -2.335145058936740
H       1.363078896085740     -0.442711049025371     -2.678088653987070
H       0.434233439777440     -1.866991205201431     -3.164376608054930
H       1.804753652694100     -2.067284250418121     -2.070410707689250
22

C      -0.181016337430153      1.723600592863092      1.122213232089156
C      -1.118614776131166      0.571957359215128      1.616042826740561
C      -0.075575658531268     -0.432177214552939      2.002141332079138
H      -1.919094381844397      0.909511727811753      2.302582954901094
C       1.082883852637261     -0.325780049260596      1.331559741402798
H      -0.317366788152201     -1.206570394481194      2.675978573226399
C       0.787504041269010      0.784509545222017      0.337018168389963
H       1.980590221366029     -0.926225425778491      1.407527917277509
H       1.573190871983366      1.351775528736601     -0.165594164961150
H       0.477180399715789      2.269473571929500      1.868170072229784
H      -0.762643838195604      2.387240740050944      0.522551643121307
C      -0.495696823317423      0.068801292841754     -0.779299890100435
C      -1.722423359359568      0.007812440052187      0.157008449509767
H      -2.420901246645986      0.780900115788463     -0.228195857106150
H      -2.228201307050053     -0.899285581105072      0.103890749173595
C       0.009168512814814     -1.238449030323503     -1.165513777188905
H      -0.439314770272871      0.837332797194694     -1.557683312964742
O      -0.241996824972812     -2.235840716662153     -0.495990660189988
C       0.838318446724143     -1.361877276677786     -2.338731102578596
H       0.721924243698755     -0.488924140402526     -3.088830369588776
H       0.626459644989192     -2.365352796903104     -2.776122350838231
H       1.840228300411273     -1.263151477174111     -2.030550594890701
22

C      -0.227299305679822      1.613597918522525      1.241489702997938
C      -1.197139629026051      0.451515643956972      1.646852650649888
C      -0.113933172255837     -0.591150941618364      2.074966909602051
H      -2.038199182366064      0.492031557767119      2.386917057725769
C       1.051812826069573     -0.361475279022305      1.353416528217922
H      -0.333221918388677     -1.384425631859557      2.678925402315422
C       0.582248133477556      0.652699349815067      0.346412137995975
H       1.996314597480424     -0.885430250135000      1.285534821768887
H       1.387977705629863      1.042889948389043     -0.317810607601983
H       0.419697512205394      1.844778401868026      2.074968126910805
H      -0.689687385734467      2.557286301012779      0.781674149412131
C      -0.460047657930475      0.113904190653317     -0.562189097169344
C      -1.695352230653474      0.118798697987732      0.258464564923182
H      -2.650897612295599      0.583465702706351     -0.157838603506351
H      -1.882400784437877     -0.995257471036021      0.389051261450473
C      -0.143613444759457     -1.294473215014226     -1.172604202705281
H      -0.337920083776727      0.979087839053810     -1.325326960462081
O      -0.525907923737711     -2.333810270405929     -0.684901561948523
C       0.732707669311845     -1.390287847382538     -2.428404263020694
H       0.252716062411879     -1.236961240354633     -3.505577120287100
H       1.275532382608770     -2.382789048816996     -2.355792961850781
H       1.410979041873357     -0.569183503746745     -2.278620764981002
22

C      -0.273331774778148      1.476345692647764      1.312077150241965
C      -1.207958840208917      0.443535266740998      1.821116124045415
C      -0.190679804617116     -0.597040153703496      2.207570846804622
H      -1.957832887396048      0.653303358583228      2.635135308279195
C       0.847080460858756     -0.609939465946594      1.393075976192056
H      -0.197739506610143     -1.243846910952580      3.119597297850502
C       0.604814758645319      0.585669839702342      0.417055423800111
H       1.701109475793098     -1.204988634583538      1.478550199547214
H       1.482296063483150      1.125445195794199     -0.039633025180807
H       0.173953392806648      2.080382744801242      2.081270530093628
H      -0.802244750232701      2.261905960360036      0.635265751639096
C      -0.504374440897889      0.037170548880471     -0.596166847458102
C      -1.704207086762218     -0.112622342194530      0.415645407613224
H      -2.393084665169485      0.609423531761892     -0.054595437920986
H      -2.219621246001346     -1.120548179628888      0.393328481419525
C      -0.284220832461550     -1.300297433345268     -1.282770920136681
H      -0.636250414642971      0.773253241721523     -1.437063990410894
O      -0.697145999732032     -2.367833094554016     -0.854979787715943
C       0.646582863397208     -1.221411695891181     -2.523288887939348
H       0.170696587957421     -1.710979077541753     -3.297574126399453
H       1.463519145487850     -1.955756748426104     -2.289152205430352
H       1.099361008298984     -0.272092237203941     -2.771471886763039
22

C      -0.223444613482844      1.439302404283580      1.289553909182837
C      -1.148308324632894      0.381177653789426      1.850411406516737
C      -0.305479724237128     -0.696269743219972      2.288708704095913
H      -1.891937819581187      0.627109831164692      2.625654150996859
C       0.725686344714281     -0.686146252402182      1.405119132043926
H      -0.303747247592092     -1.365495026003956      3.251002915972574
C       0.603920668080163      0.440514905754214      0.413082338320844
H       1.597747653527776     -1.359164053328467      1.416383478023211
H       1.558803456640538      0.786004983831787      0.025507544325583
H       0.300041251875512      2.050352222273380      2.093980281215617
H      -0.763824207812179      2.112146023101232      0.695914611666010
C      -0.714191450009732     -0.139048611961899     -0.466191776337489
C      -1.843121813612241     -0.245498219796898      0.626470885172791
H      -2.599020683913340      0.443927471494212      0.353983396800326
H      -2.258264542152230     -1.248204774421361      0.867847475405900
C      -0.397179599158859     -1.293854320986739     -1.361106238273672
H      -1.160335372016471      0.531872387953127     -1.153180300902066
O      -0.775586842940909     -2.410871617051040     -1.127907568705218
C       0.592921838674826     -1.024631023322718     -2.446438550003122
H       0.467624109365801     -1.804984524946407     -3.141161709522008
H       1.619625659054897     -1.017798599177153     -2.026381118265461
H       0.482120517495307      0.064217003428999     -2.765109371929709
22

C      -0.386401223984875      1.338389741026523      1.330190958252898
C      -1.289487665047365      0.179076211748516      1.909667483011890
C      -0.226833284634049     -0.857520410372045      2.349254439567365
H      -2.139384779196524      0.482539769370173      2.535930492040904
C       0.772945795992853     -0.707076211507340      1.459308963516923
H      -0.156436106247766     -1.452094125074830      3.318220850120932
C       0.394366002465793      0.393514836188685      0.426600544781373
H       1.849609575504673     -1.107762997266900      1.374623252106942
H       1.160883454725012      0.858638981654189     -0.166361092932156
H       0.354054895129118      1.592654033824869      2.179838197532778
H      -0.929390627249928      2.202792870490871      0.887266399664789
C      -0.756661368474927     -0.156251442808563     -0.350212838283076
C      -1.930391724465262     -0.319917893329495      0.656129950475470
H      -2.763398494232251      0.324575311597168      0.455704721093659
H      -2.256186419708335     -1.332939693121728      0.595032499474550
C      -0.459820786289021     -1.289543478078261     -1.361950116503082
H      -1.110398124563846      0.644857410457054     -0.997766778070207
O      -0.950460270157232     -2.374743288760182     -1.290798775605075
C       0.680559026426104     -0.962487420803241     -2.399312661024370
H       1.091943088577858     -1.967119400751858     -2.643136670679489
H       1.358316068450075     -0.258339021689589     -1.930590232168281
H       0.329141158568050     -0.517683991883599     -3.377977217240464
22

C      -0.630631946409061      1.212955975561509      1.649144288205241
C      -1.386235375668988     -0.066773775169385      2.001511276525146
C      -0.203626380846697     -0.972934551930063      2.163015600457332
H      -2.165752532255314     -0.083695970068873      2.756171971581278
C       0.759126668026033     -0.640210911146154      1.276994601574099
H      -0.016854398277322     -1.814011056632736      2.792195321420779
C       0.215708400499302      0.480125879501124      0.551568639204516
H       1.892201568630959     -0.948379171569733      1.183769238024754
H       0.909007277075552      1.122652332381535     -0.025630792913260
H       0.025797497950601      1.613553768646323      2.403293897411678
H      -1.382944265841680      1.975831075015596      1.294221841676129
C      -0.815044999906270     -0.121190435051349     -0.464227367886668
C      -1.946270249438863     -0.497211632292677      0.409837240082505
H      -2.927339718188685      0.046566171862835      0.174678508557513
H      -2.138291447719893     -1.573838125616349      0.318211818734863
C      -0.400813910804808     -1.262188638946739     -1.289877664851981
H      -1.035749161807760      0.799139224671165     -1.130803477411470
O      -1.079631774801108     -2.224956097435910     -1.191853126873839
C       0.748818579114964     -1.058560783883258     -2.247813211234536
H       1.486202944799359     -1.879984782281334     -1.919078114438641
H       1.150400845499423     -0.071267675404603     -2.137429138365237
H       0.461434660577171     -1.412939951874945     -3.215295048626418
22

C      -0.867270484707580      1.052967261175963      1.805387391009458
C      -1.486813381732693     -0.335822330824854      1.886625387085402
C      -0.150231882273808     -1.219651431527811      1.873717303221803
H      -2.114061167121760     -0.621462735730718      2.739921312441933
C       0.720092418983795     -0.606693498622129      1.111502877279086
H      -0.026346196621296     -2.238413773395465      2.161297609217648
C      -0.009888258058000      0.667045408258915      0.599608986160650
H       1.597585031955505     -0.946343032813995      0.546953965973381
H       0.602283279552714      1.547904393044432      0.211306110995344
H      -0.303066664847963      1.176994840447480      2.676024371354479
H      -1.581564330633442      1.912729854278209      1.627220841366405
C      -0.968557637213045      0.000162775982080     -0.463648982778506
C      -2.089508683303976     -0.489516557136390      0.526869044635518
H      -3.112150226566412      0.095269846109122      0.282285615182229
H      -2.302686550843810     -1.511147518007586      0.396991520028765
C      -0.371363612433666     -1.220052224913775     -1.166610437179142
H      -1.312988663992386      0.699734272745736     -1.230513307265487
O      -0.991435827290439     -2.307673987600667     -1.241230897566056
C       0.928722606235094     -1.058868904209232     -1.931070847703250
H       1.878370191304470     -1.416725093669391     -1.497567828720680
H       1.034705988605914      0.031015131772977     -2.027774906657160
H       0.864548064697850     -1.554136177673447     -2.922615522091070
22

C      -1.001719469390321      0.933949194158927      1.714547089938882
C      -1.527024877136460     -0.590958767830580      1.848022863174152
C      -0.300058631086176     -1.246020405887183      2.016728974534813
H      -2.143751521596796     -0.895517868118526      2.743942667100972
C       0.702742210246877     -0.651484984173458      1.283839481131923
H      -0.206972363059132     -2.263837272891075      2.264902460545180
C      -0.018414393064119      0.586843221787046      0.588969340894531
H       1.637353434043738     -1.082067681807293      1.120899154117190
H       0.614525708824086      1.300833873127558      0.185130583683295
H      -0.648893977131305      1.417224299071820      2.686251507339634
H      -1.876195967032801      1.546295031434950      1.355475229814012
C      -1.095973448100488      0.019071802180165     -0.412358663076525
C      -2.243205062342135     -0.680289499265702      0.493906417678102
H      -3.143398313890446     -0.065348328985680      0.522097934044216
H      -2.532749729494132     -1.644955346709985      0.114830317213360
C      -0.445797993692579     -1.102396883205231     -1.237415865360475
H      -1.668302783680518      0.786663483075795     -1.045597023940443
O      -0.858376786692057     -2.246025298664821     -1.342853443700800
C       0.994805520469487     -0.898879005736299     -1.841611063720231
H       1.657327448319425     -1.504314468069827     -1.249487057415885
H       1.474437219282493      0.106500772153599     -1.920461326180474
H       1.055140346242093     -1.276187991419228     -2.924041315845486
22

C      -1.083263833999830      0.891435438485658      1.747026866217015
C      -1.673211440954456     -0.492080502125380      2.003061288694891
C      -0.344139854745992     -1.295140333643393      2.175709430181938
H      -2.451472639595739     -0.301151840621940      2.788011429774813
C       0.573968157089565     -0.573121387130764      1.498356862542934
H      -0.055620677009941     -2.224379987990922      2.594464951160401
C      -0.029097512160517      0.522508070170760      0.784311922294949
H       1.531377333248920     -0.828420199545945      1.190848104821816
H       0.648455192421720      1.291988309062042      0.425592915199275
H      -0.714329758188488      1.270854104959616      2.753372952198887
H      -1.821481974817194      1.545801632664501      1.363226794603620
C      -1.130056012346680     -0.245564616542223     -0.421796602482996
C      -2.259359907107517     -0.803728211346706      0.554237470872809
H      -3.206325169446240     -0.329673673048309      0.410036197502239
H      -2.417753962835684     -1.933885830940201      0.391266767021212
C      -0.400268559843118     -1.184664613149826     -1.377842454442447
H      -1.550606362485109      0.643771024309916     -0.946403486163930
O      -0.827349577260211     -2.277540039692803     -1.663148511778586
C       0.905371040942897     -0.807824080740890     -1.988197029856206
H       1.621133802013109     -1.641847637207780     -1.856730371584192
H       1.481815018425662      0.094769074815293     -1.706891064431299
H       0.773232185064995     -0.687171329747663     -3.068593718798716
22

C      -1.160970533668679      0.974913778416923      1.739949703158051
C      -1.749750564405658     -0.519931957428467      1.995057254468568
C      -0.500506371064442     -1.203808374943120      2.319277216770626
H      -2.595822220642910     -0.635200978907243      2.634538092931579
C       0.517181942061544     -0.802105562938493      1.460801701519149
H      -0.514441966829715     -2.077913325394552      2.887598164265627
C      -0.128149202037580      0.359761761284301      0.666372630655283
H       1.528070463509860     -1.113801279647971      1.370708050381063
H       0.479158759661142      1.203349189135481      0.184702212512654
H      -0.513538367291071      1.411548911108784      2.554179689728022
H      -1.863036237636688      1.725293791265685      1.407708363281312
C      -0.997499921526081     -0.305056246749054     -0.299044769352505
C      -2.094101046855576     -0.965093622337656      0.519619590077476
H      -3.171446268727622     -0.737755481149910      0.361850657138440
H      -1.885498809164553     -2.115957312279490      0.361869006580746
C      -0.379572217519237     -1.241001796089355     -1.345545480366335
H      -1.381087291800307      0.532802100525399     -0.854614026371817
O      -0.852370262345119     -2.326829743542626     -1.533167341626569
C       0.691315137927437     -0.563795911909238     -2.102579992428041
H       1.538743489036467     -1.212878178876608     -2.498521366656985
H       1.230170522492764      0.114265967553184     -1.445044420583966
H       0.314024979712856     -0.010406970820184     -2.950452931513414
