22

C      -0.054358877019910      1.818292036192819      0.978000695886790
C      -0.885130400871850      0.756600608199369      1.646415371213540
C      -0.008396110223220     -0.265458063823011      2.008732505439470
H      -1.784426625062059      0.987833627452589      2.204802340157830
C       1.193718366157370     -0.113870754970751      1.298685222592910
H      -0.262245946600830     -1.114433596881321      2.628290239716101
C       1.120422421893490      1.020418721708359      0.528661857645340
H       1.993221352956530     -0.841390399401481      1.280148592263270
H       1.895057938714940      1.397305068361709     -0.125190678932640
H       0.287890694966570      2.516734345025499      1.757598249308760
H      -0.555458155466170      2.403955993682249      0.209272238163790
C      -0.700163294135400     -0.034993348405441     -1.014957068363840
C      -1.714487045356380      0.033886352619679     -0.075679580887860
H      -2.449619693011539      0.827769164010049     -0.151553653547790
H      -2.075477670016270     -0.904102434507051      0.329249252262580
C       0.037995126778830     -1.276911931387211     -1.164452438837120
H      -0.512837261450720      0.773727152348119     -1.710901131945380
O      -0.108000216134870     -2.202618371901111     -0.379100983467770
C       0.980229405324210     -1.405757663678131     -2.335145058936740
H       1.363078896085740     -0.442711049025371     -2.678088653987070
H       0.434233439777440     -1.866991205201431     -3.164376608054930
H       1.804753652694100     -2.067284250418121     -2.070410707689250
22

C      -0.080301172643432      1.848958471639583      0.938676964539539
C      -0.952047656604995      0.796662563507499      1.595188119945499
C      -0.063076875476718     -0.232139295494478      2.067304365944707
H      -1.799079918653343      1.100435694081581      2.184184037155640
C       1.104669504205732     -0.145815495792359      1.331320030248266
H      -0.326761559134932     -1.088466455270926      2.717563934177109
C       1.028108701831710      0.976386910958185      0.467910670198243
H       1.909393783384757     -0.916450986575918      1.223025484359506
H       1.856728694369736      1.276132071076989     -0.096741133664102
H       0.241685452722359      2.646289836667931      1.628474838868370
H      -0.559191032583258      2.375483034142313      0.109481172959385
C      -0.640893517841341     -0.003513534688854     -0.968574898760989
C      -1.728120763168532      0.107344279669505     -0.063354681661310
H      -2.411016246174858      0.948938350626722     -0.174750609988735
H      -2.220575667348822     -0.859753803079153      0.303308017051763
C      -0.014258417976012     -1.298371089857615     -1.240414500631272
H      -0.487486116953395      0.787535133632245     -1.739934634367139
O      -0.203153467860449     -2.266795501064038     -0.472325820742646
C       0.959990055918086     -1.404615090724830     -2.423020015428059
H       1.482893835321596     -0.464314865359387     -2.592313392729095
H       0.455991417757467     -1.701019513597429     -3.364219622813772
H       1.723100251659120     -2.152255519092245     -2.181755787536745
22

C      -0.123818686413186      1.877763253632182      0.895207499463706
C      -1.058489265318930      0.799812950834274      1.505569148649541
C      -0.145414800464947     -0.191292735899448      2.073656273991482
H      -1.893742307781833      1.123418798374704      2.149314928154386
C       1.031576673120515     -0.169524393080683      1.341219107727573
H      -0.448278742124052     -0.911237376432782      2.864544256021619
C       0.963985815642615      0.914265943901510      0.400493390605423
H       1.833993176195662     -0.924906214051284      1.492173780386250
H       1.724432705511299      1.295432911098101     -0.302548946061299
H       0.367035675472628      2.483427754849728      1.679655483095299
H      -0.646676196739574      2.517916046509213      0.158180277900901
C      -0.583997204485911      0.011453241419508     -0.951842090463138
C      -1.658903074568239      0.214529184083961      0.064919291413355
H      -2.407303658000107      0.892652330403482     -0.393717986897616
H      -2.213153811776244     -0.790608102813742      0.253310512742328
C      -0.032783992584467     -1.333659414720957     -1.277871777299428
H      -0.467196013044657      0.790185420637101     -1.753702168716912
O      -0.309531214536158     -2.295437729066171     -0.617715563852651
C       0.923262936675891     -1.408733815646239     -2.454401934397886
H       1.509696640590143     -0.505674572048837     -2.577398055525644
H       0.328763119893254     -1.479917134416294     -3.412587831278679
H       1.539635945361665     -2.323489431283970     -2.372057485989292
22

C      -0.112562001574331      1.847352849751533      0.911367954920547
C      -1.157570939496523      0.834884527913463      1.348035561387535
C      -0.210998948363832     -0.147686951714415      2.040500954556333
H      -1.991365447607809      1.240258825177037      1.983689528072073
C       0.937180974626682     -0.137617604303962      1.398435888391190
H      -0.478894822453667     -0.836265415001754      2.820422921280360
C       0.740425926097810      0.797184677230622      0.216774226441649
H       1.823702637139106     -0.724626501298362      1.523429045929508
H       1.765230250846558      1.083893481385491     -0.205937705781827
H       0.324408866268109      2.380356531231500      1.780271191271759
H      -0.390504825811830      2.634288056411890      0.149604558509111
C      -0.404204657779993      0.100725090056535     -0.807582506569151
C      -1.609567285665720      0.219377509324435      0.120096967518563
H      -2.336267077470985      0.993254356018977     -0.249890385310048
H      -2.110872417973879     -0.751238765025078      0.287606277612353
C      -0.055028883717026     -1.316142606809939     -1.284612941870820
H      -0.619207054682657      0.650968612923585     -1.738837823282904
O      -0.437660024168008     -2.328895330351045     -0.741209912237290
C       0.875111617898103     -1.403416593623354     -2.504532391130982
H       1.657856660559835     -0.633123613542506     -2.495423979900554
H       0.252120927230797     -1.310076413248997     -3.432995110590726
H       1.365769011856896     -2.394498440326625     -2.531128592472498
22

C      -0.087744519347174      1.865269417050716      0.854956628988574
C      -1.189628195339981      0.909017179797507      1.407938287933366
C      -0.312406536097069     -0.122730708946638      2.079238416096806
H      -2.039486907869915      1.321402510718954      2.045177639408470
C       0.857710998009625     -0.141904841583848      1.380055456571963
H      -0.635407754492950     -0.777465678020133      2.869651081321352
C       0.710451921797191      0.729458192283576      0.150571101833157
H       1.695659282220967     -0.704954645838706      1.617801964601180
H       1.521914445052845      1.107071395697109     -0.549090676354346
H       0.652524500453118      2.173642950647653      1.644603017157675
H      -0.522108800449761      2.736536917177741      0.305964343261058
C      -0.303819581494414      0.087985452112771     -0.712991871406256
C      -1.704313510284242      0.179170692351709     -0.001033517891604
H      -2.420293569927042      0.702779923162593     -0.707201866746218
H      -2.092927530079832     -0.775138010459328      0.172736348720098
C      -0.024040312152072     -1.281163091044766     -1.277455634912239
H      -0.220781327818433      0.824828928424824     -1.513945966388026
O      -0.585836235094672     -2.312878082673884     -0.876658659635468
C       0.808168278593068     -1.403037273272175     -2.525696933347823
H       1.709226845394439     -0.740030801418669     -2.487627997627420
H       0.251312101464026     -1.097789426752542     -3.401656578180504
H       1.077752792414693     -2.456561982179612     -2.632187950656871
22

C      -0.114760208551639      1.877600671276439      0.805849020231653
C      -1.224176352839164      0.930858220478208      1.343102398915861
C      -0.357241109967478     -0.043945037230666      2.060854247570965
H      -2.027608970745079      1.426856248014038      1.905038589637786
C       0.809945108332919     -0.220147129765218      1.394839458799543
H      -0.606054540360751     -0.645443547994992      2.959431488124288
C       0.787559516312215      0.771192036877247      0.284530332782870
H       1.470396939185852     -1.069138449155232      1.576135423770184
H       1.828788740145712      0.927278782539663     -0.102091234034271
H       0.259314854831337      2.529968603047955      1.648945773552668
H      -0.456708327177722      2.568986504671189      0.032826082060239
C      -0.442858726651841      0.050807658017005     -0.841929647243421
C      -1.660852803108361      0.179140710326601     -0.007332768897517
H      -2.451489229061912      0.806986405380216     -0.456130661586058
H      -2.088664195789733     -0.776384586747197      0.194850300039407
C      -0.068906317710081     -1.327613131734712     -1.320444329594230
H      -0.491409242898527      0.635702633635875     -1.780532892762076
O      -0.720531437316460     -2.256590016214060     -0.979022840808160
C       0.807301360217528     -1.413847810997512     -2.532314875021845
H       1.811964402416161     -0.925713370310435     -2.523933969845729
H       0.158331478368132     -0.853449947592114     -3.186154509736707
H       0.864139505454711     -2.439021508259321     -2.845159603136789
22

C      -0.182497455429729      1.910952503083621      0.732990360563072
C      -1.188184992774730      0.958311656080069      1.229839284160663
C      -0.404840391763574     -0.020405875643700      2.093854418948720
H      -2.055898008442900      1.316893369090483      1.744757044855885
C       0.714560743174101     -0.267371628194639      1.433242186069496
H      -0.931935408238926     -0.616747352247598      2.884710583387665
C       0.746169975873214      0.695953935491338      0.266684800008253
H       1.486017875954105     -1.103082925947425      1.498693764247990
H       1.654896175958293      1.055136128482660     -0.162828920917962
H       0.216180499078763      2.586414025344541      1.520776428644167
H      -0.436100831086962      2.432871066778428     -0.156881242711546
C      -0.364245062479662      0.123909445371799     -0.859785328357647
C      -1.659157092900579      0.216451233924468      0.071890075847525
H      -2.377856868333321      0.803116399709335     -0.484229044518461
H      -2.185108273861730     -0.754043299260149      0.319842439327098
C      -0.192103782623099     -1.327428660259560     -1.394950530156037
H      -0.560570674116727      0.830751559330819     -1.717132525456813
O      -0.847917789479594     -2.285384344471896     -1.035794779713223
C       0.812382513025440     -1.413694659847532     -2.551462061289492
H       1.828466424606637     -1.073548152909035     -2.279489945250370
H       0.533166634006670     -0.750136374586009     -3.378625630690679
H       0.832673964478362     -2.410501331219039     -2.993159790967960
22

C      -0.114193522514687      1.867052198322350      0.637153891917217
C      -1.291031816858396      1.040054441646954      1.371552990721360
C      -0.513680816991725     -0.042533117563216      2.079581636182780
H      -2.010582634595801      1.666518777258092      1.886914235751499
C       0.654973967922385     -0.233687982403673      1.445928923883895
H      -0.865530522518812     -0.628918618336069      2.935186875576430
C       0.652572011356220      0.648222806031275      0.139210760588922
H       1.438470175700597     -0.963376982355850      1.858465961829153
H       1.573469464171887      0.768932471516334     -0.348219536465976
H       0.565064007017448      2.461717190181337      1.249379514127297
H      -0.663425378995256      2.536325575768270     -0.016303802757300
C      -0.365919627812871      0.069129331739982     -0.737340377016061
C      -1.677523768663277      0.231492188161823     -0.082425229781772
H      -2.466750851708593      0.690775446053109     -0.656824235968304
H      -1.966024448989655     -0.890257407195160      0.156806651076810
C      -0.268483178187482     -1.268065406665116     -1.504643215787107
H      -0.190125014240642      0.776190610714783     -1.605106871394150
O      -0.910140500495171     -2.252586913499946     -1.120041479638776
C       0.788960321541902     -1.408975664307788     -2.544783314735341
H       1.667671700272663     -1.319921003611514     -1.920559360965533
H       0.844048586007321     -0.605167561202952     -3.310003694322087
H       0.820823454415645     -2.452742934523453     -2.917552181426935
22

C      -0.086875133115988      1.817565898755618      0.684732890242593
C      -1.280367177671173      1.066046422222841      1.254725978943881
C      -0.584908072511501      0.001660940119401      2.074608201371639
H      -2.129129626772614      1.554686336374336      1.779027400046661
C       0.583547116948999     -0.169402879273248      1.432626540171528
H      -0.830662822597575     -0.510927407591702      2.978994021415282
C       0.635606328908941      0.549302342017735      0.191937269142421
H       1.366498807134207     -0.866130457808851      1.654977592649536
H       1.660172648160089      0.717740709503700     -0.179224903899563
H       0.454396634081035      2.343298309111572      1.475215814111015
H      -0.204291614304245      2.451339327411018     -0.261615935382396
C      -0.485598319664156      0.026299370574293     -0.920678948892674
C      -1.768870184083801      0.261111697758880     -0.036478323352897
H      -2.462339609239125      0.863127547396365     -0.671874861999185
H      -2.317753503665176     -0.701496600758070      0.215540070234285
C      -0.258395235505087     -1.279946746984594     -1.486374044548897
H      -0.594523401614442      0.766321436043230     -1.779024814364533
O      -0.986452007498415     -2.177063725882373     -1.233209083806698
C       0.827935477464074     -1.435307778954126     -2.487339740008562
H       1.785230371940306     -1.568007953226539     -1.962536083482463
H       0.930759402513266     -0.582948623889519     -3.208859659791182
H       0.596467635049129     -2.321743451679661     -3.108243859331697
22

C      -0.087733361044052      1.812976056723674      0.664869492537275
C      -1.299881576352890      1.007613289500010      1.099215871560935
C      -0.585810281957390      0.101279080082509      2.056787255645272
H      -2.036693012344257      1.714124921219935      1.584412914504524
C       0.556632673104361     -0.332149653874210      1.455361397036512
H      -1.229389920471639     -0.261492907013916      2.847221548110906
C       0.610020253988251      0.580445575285257      0.157847103681079
H       1.250439849887086     -1.024249160758874      1.792238439789144
H       1.594012779846683      0.699924320102444     -0.421536483799056
H       0.382278371505079      2.260000346920798      1.552726631277353
H      -0.378052134692746      2.700371696744209     -0.053045354781983
C      -0.581276650620391      0.140610601598358     -0.898342155612193
C      -1.859475966727726      0.309403238957580     -0.052275069161575
H      -2.556012613670720      1.088948138993652     -0.506737428065940
H      -2.465610722415507     -0.520757050746528      0.254329548305678
C      -0.289843320978861     -1.316373272951243     -1.482345382188052
H      -0.468014701220523      0.908670348518081     -1.708327542055613
O      -1.107902713138041     -2.194342098087649     -1.330477791319205
C       0.916852750999191     -1.473362480145742     -2.457607839514938
H       1.940571690563482     -1.769766148046334     -2.095335108726802
H       1.034057699049028     -0.493409317036849     -2.961208770137938
H       0.568610066486039     -2.290592236178693     -3.090886787428032
22

C      -0.085353047144219      1.883530069509201      0.640944038625442
C      -1.343090865589900      1.166157207675168      1.229854694048876
C      -0.659879741741706      0.046657714097862      1.995860408644379
H      -2.122975252474202      1.691896154911449      1.798827291707999
C       0.461208377070322     -0.339688791136845      1.388236278871245
H      -0.849988354673078     -0.381832233224301      3.004122609366349
C       0.547837523841220      0.513177735329799      0.086448445067102
H       1.071054182247848     -1.196355033681941      1.708360893108043
H       1.588906557382624      0.592457006025409     -0.386458037017713
H       0.572303501902656      2.361458680142877      1.406704967906109
H      -0.389809304556629      2.639237889479518     -0.184788511942388
C      -0.536282204413029      0.062413373035737     -0.843380751829638
C      -1.900835820861860      0.386671222233008     -0.189010104506083
H      -2.575972070372309      0.914300150677445     -0.912274979151569
H      -2.261457115390271     -0.591790692777299     -0.095907958984806
C      -0.372920082868940     -1.268065251835776     -1.492520270564142
H      -0.502694193940002      0.694258345232321     -1.722080138282377
O      -1.182864573808354     -2.205414966496521     -1.412447060627136
C       0.910741510790779     -1.484963281774234     -2.392167446254871
H       1.735033278928025     -1.901905496224562     -1.705611751275132
H       1.248468916259977     -0.581320969146482     -2.925768318665300
H       0.744825684499609     -2.143917475116619     -3.242269751578283
