22

C      -0.054358877019910      1.818292036192819      0.978000695886790
C      -0.885130400871850      0.756600608199369      1.646415371213540
C      -0.008396110223220     -0.265458063823011      2.008732505439470
H      -1.784426625062059      0.987833627452589      2.204802340157830
C       1.193718366157370     -0.113870754970751      1.298685222592910
H      -0.262245946600830     -1.114433596881321      2.628290239716101
C       1.120422421893490      1.020418721708359      0.528661857645340
H       1.993221352956530     -0.841390399401481      1.280148592263270
H       1.895057938714940      1.397305068361709     -0.125190678932640
H       0.287890694966570      2.516734345025499      1.757598249308760
H      -0.555458155466170      2.403955993682249      0.209272238163790
C      -0.700163294135400     -0.034993348405441     -1.014957068363840
C      -1.714487045356380      0.033886352619679     -0.075679580887860
H      -2.449619693011539      0.827769164010049     -0.151553653547790
H      -2.075477670016270     -0.904102434507051      0.329249252262580
C       0.037995126778830     -1.276911931387211     -1.164452438837120
H      -0.512837261450720      0.773727152348119     -1.710901131945380
O      -0.108000216134870     -2.202618371901111     -0.379100983467770
C       0.980229405324210     -1.405757663678131     -2.335145058936740
H       1.363078896085740     -0.442711049025371     -2.678088653987070
H       0.434233439777440     -1.866991205201431     -3.164376608054930
H       1.804753652694100     -2.067284250418121     -2.070410707689250
22

C      -0.093202697076332      1.813721256961677      0.991966043881233
C      -0.906482833956740      0.717048753529977      1.616595508201130
C      -0.013775567970891     -0.231241674309859      2.033585566746015
H      -1.768728544111392      0.928813920492760      2.300986074135376
C       1.209009143602887     -0.132543820992740      1.285817619380821
H      -0.222135405304038     -1.163648084083891      2.576963401698091
C       1.147162691541017      1.069882020800130      0.567713168169028
H       2.045488846176042     -0.851272321309396      1.315050227793085
H       1.873382771289976      1.504504111028662     -0.140494145632704
H       0.298595800352401      2.496062860989459      1.775145779889364
H      -0.553531218029101      2.394305981661097      0.173333955876507
C      -0.680669761753348     -0.021415021053076     -1.021802321882877
C      -1.697293443260649      0.057644825423822     -0.062961097350249
H      -2.469341727942180      0.875228596096725     -0.217971377798707
H      -2.025755458067267     -0.921578378709020      0.313770873454904
C       0.050446859871854     -1.273120323788400     -1.194540647974056
H      -0.517193362037766      0.867627502763452     -1.681819441988172
O      -0.134296027468406     -2.247145947214671     -0.381629952050035
C       0.968910729425855     -1.385926423652343     -2.398720503990799
H       1.419679867240008     -0.467363602094148     -2.781438677594067
H       0.261362454612229     -1.801326864043857     -3.146979867076940
H       1.671903269935998     -2.121481006743591     -1.985216365563831
22

C      -0.113541129881433      1.812103653869089      1.004919241137991
C      -0.950941493283465      0.700031387695375      1.593289849662111
C       0.010978824005186     -0.232200225001645      2.044347693200991
H      -1.735991474983741      0.882358189126567      2.281437905818915
C       1.218590820543695     -0.125735922830410      1.276074429318103
H      -0.214284860427948     -1.160560969670512      2.577797395465296
C       1.165850116670380      1.100675484942170      0.601739999717970
H       2.041499861812302     -0.836959444965092      1.328022802803612
H       1.879416943985534      1.552450748274240     -0.091452319515286
H       0.230303009316949      2.489317846692586      1.821738284079915
H      -0.555741276058120      2.405075430258964      0.201490825420522
C      -0.661139912537476     -0.005154469836477     -1.030643620163157
C      -1.679568225730341      0.077879878559911     -0.042283370786682
H      -2.420249569280091      0.797083138007363     -0.246981129013088
H      -2.032318076070263     -0.903417059628668      0.297771713614714
C       0.045300256929939     -1.285981178785395     -1.193451991397527
H      -0.484018054002614      0.839128124461000     -1.646294947015734
O      -0.153454870811394     -2.255475449313973     -0.414402420620862
C       0.943510712845728     -1.380207157635579     -2.441364011234749
H       1.469866840167464     -0.469956939151824     -2.848038722177632
H       0.207014542609392     -1.770655040916663     -3.172649204872367
H       1.632253038505586     -2.200746971625116     -2.078609765666800
22

C      -0.115846037898585      1.813518872802416      1.024066709433910
C      -0.982781985860528      0.686948176256770      1.567567991364282
C       0.051174588994480     -0.260248634772176      2.031916478885829
H      -1.870793068678898      0.887587699457054      2.266336498197115
C       1.217650877098875     -0.091886291882671      1.281343249376079
H      -0.212869332361754     -1.123627482774821      2.632669627311574
C       1.162703026364086      1.117344658467633      0.631271507371171
H       2.033194579220221     -0.812622117439764      1.304075761566509
H       1.945295595130408      1.551385322318922      0.018684263059046
H       0.086800262709286      2.486927968735602      1.860205135466789
H      -0.571982403778380      2.457841288915460      0.249828811823393
C      -0.641492675941596     -0.007061178837640     -1.022790158554896
C      -1.641483922189308      0.084319115345837     -0.020523420807931
H      -2.484340789570269      0.842780485680671     -0.249989733773069
H      -2.088085825925426     -0.874994028084260      0.279519713492436
C       0.026189174311652     -1.291492791584756     -1.184413644633497
H      -0.399019030325187      0.847216404377744     -1.727657160517503
O      -0.167202106128720     -2.240367604906236     -0.465550396061227
C       0.915666715620984     -1.394024114155033     -2.462947711459289
H       1.437626137280935     -0.536756249560959     -2.816157136122567
H       0.233401460431770     -1.750547720234301     -3.244936447667564
H       1.600865983765740     -2.214641052680387     -2.370060644376466
22

C      -0.116499343680176      1.823776832073343      1.044466249652008
C      -0.998953735805185      0.662851703182979      1.541792189327700
C       0.066442263678634     -0.291163612009682      2.005173936661488
H      -1.873336720532949      0.879426423262286      2.103246114369376
C       1.220332664759912     -0.060051808299911      1.307156221311476
H      -0.158202833526652     -1.127322926698993      2.706727650631475
C       1.139138420897055      1.132162238323522      0.653445637937990
H       2.054779854482838     -0.765761912275931      1.248360141780643
H       2.024588852838916      1.565908174865922      0.131930530182102
H      -0.003081176881219      2.516667080878032      1.934965413558449
H      -0.588379400709002      2.479464372851115      0.279114810866456
C      -0.612727692088417     -0.002992955058705     -1.013460346980476
C      -1.621712058489986      0.099879308591442      0.008652564006899
H      -2.381655190832745      0.824166202072294     -0.185583309844384
H      -2.111941066815830     -0.859914003646519      0.237393428490382
C       0.012539742289133     -1.269601254407923     -1.207652451138698
H      -0.363703516251252      0.743702748163981     -1.736846811919994
O      -0.180158529830097     -2.233384024685880     -0.509201677699611
C       0.873543030313367     -1.426052432028922     -2.472343424885632
H       1.416992808901640     -0.460769009268623     -2.771066230145020
H       0.237999823577712     -1.690004967825992     -3.360391626873182
H       1.649302319977985     -2.264791416056118     -2.604618959931367
22

C      -0.123368525131478      1.850339450856270      1.076270124877700
C      -0.980016987068282      0.629832876609011      1.497198161746510
C       0.036580826658256     -0.325953872269651      1.979961012667568
H      -1.930195459529343      0.877320196799265      2.058246641304056
C       1.235106222396055     -0.038522384014610      1.343175669607878
H      -0.062507164108244     -1.099878695501794      2.709019861874871
C       1.111819226077584      1.153543226132577      0.655268126542510
H       2.092042481678332     -0.683904130523960      1.208565341128660
H       2.004624756947373      1.585519110018449      0.248021730535663
H      -0.010317034650907      2.470099770608255      1.956734344186974
H      -0.587186516027734      2.461217986814090      0.305158944537169
C      -0.578134855637235      0.004699670496739     -0.991805456119629
C      -1.600783034099097      0.106512477690791      0.046845415577240
H      -2.328877771594758      0.925752959194519     -0.140693969722722
H      -2.080494519345159     -0.854719251580516      0.193338011449757
C       0.007557889981102     -1.250011260441854     -1.261849800643697
H      -0.375744618004334      0.766197631330276     -1.769401341028049
O      -0.196248580721023     -2.240928467128649     -0.535376370931400
C       0.850484349157792     -1.452975753263088     -2.503852580038384
H       1.313428998957021     -0.497428676644978     -2.686129889668143
H       0.210687942845745     -1.553773329954604     -3.402445600138714
H       1.583621865217947     -2.207210180857679     -2.616534806796562
22

C      -0.141803595220474      1.864566578150061      1.107262238854348
C      -0.960489333028945      0.594025602153856      1.449295349865480
C       0.004768403861529     -0.352645482500395      1.951727366298827
H      -1.832784780478953      0.819847349671616      2.065032395040315
C       1.247303939245001     -0.024480817798234      1.381309890159079
H      -0.068393371350291     -1.155019361991088      2.719585366120822
C       1.084810034002747      1.176550415543386      0.649847707547543
H       2.176203816500580     -0.611762416286356      1.246816914814973
H       1.995080459819342      1.716604685768677      0.260837763532987
H       0.068580266115954      2.462225283867302      2.050465729301426
H      -0.601183826097245      2.482156614735231      0.308998047863711
C      -0.541757874719372      0.026701599717428     -0.973567944029703
C      -1.568901141655975      0.120343787388032      0.082227207546351
H      -2.273691186360593      0.963614182092002     -0.139330353753814
H      -2.056416422331570     -0.884310841873459      0.178987381566918
C      -0.000038903946200     -1.267471421217768     -1.312905346710711
H      -0.448757116080806      0.854357193744667     -1.715830390826543
O      -0.217726125054274     -2.244190799694858     -0.559853338536728
C       0.818169596010340     -1.452589531318507     -2.547379988029925
H       1.329931590733910     -0.454488520482171     -2.643857812485517
H       0.123130961296175     -1.440984125271511     -3.392808063680408
H       1.592669303701161     -2.284590060490105     -2.482751674978597
22

C      -0.164200190145306      1.868470963169288      1.137179391275582
C      -0.957250816814621      0.576801208300201      1.417474498556891
C       0.010832656483787     -0.384185542876689      1.933892287669266
H      -1.747205566410097      0.710423566279246      2.162739616918003
C       1.248948535204455     -0.017979138884298      1.410100752968179
H      -0.184017813545557     -1.187103939115107      2.627967627149541
C       1.074878217584130      1.201330409608186      0.639460652945926
H       2.191189526174774     -0.545689960009797      1.419531102942075
H       1.876061524468949      1.827695891874205      0.250150281708329
H       0.111641141744470      2.413257791927618      2.042959806762406
H      -0.615233047939077      2.522789787401964      0.394935041256350
C      -0.502044300614979      0.058433167507036     -0.954389350624227
C      -1.536374553230030      0.134479245235520      0.099157900289056
H      -2.244203700938626      0.887830072435596     -0.175549764698481
H      -2.011888042871929     -0.814801678041526      0.223796426273030
C      -0.013800523311715     -1.301193235182396     -1.341480154209667
H      -0.504616604484534      0.903546152011412     -1.613534503159673
O      -0.238301961954417     -2.242005826045351     -0.594525341361892
C       0.796085166647881     -1.428288693528475     -2.591185780345275
H       1.416950690372057     -0.501153366852804     -2.657404557191118
H       0.056066546666803     -1.453106859326920     -3.429471249873265
H       1.454937184697689     -2.282968285528042     -2.411769483288078
22

C      -0.181958779432228      1.857446078899507      1.162981306074856
C      -0.964238694547074      0.575704441932032      1.426055240991817
C       0.048944947549630     -0.406450673269942      1.916341604514242
H      -1.767505302382498      0.629438640328571      2.240253708384798
C       1.235510820617015     -0.005105064846128      1.433458808408616
H      -0.320827352202395     -1.277341894630286      2.510428832288555
C       1.061763764917002      1.209849039558657      0.633436024448370
H       2.191640089161569     -0.534911487410162      1.635544143854259
H       1.803700207788337      1.890114500383149      0.180979535364695
H       0.110449217300726      2.394730066322894      2.077551610737665
H      -0.657062429073050      2.611075895323684      0.483089593393614
C      -0.451798303931568      0.084849611861856     -0.922673070968933
C      -1.508607888566382      0.140672833533412      0.089738915421924
H      -2.317738449355053      0.882155076871111     -0.256330469290679
H      -2.027851023180893     -0.833383419713754      0.286657014575367
C      -0.032192309585626     -1.312037792218075     -1.358613769599951
H      -0.497602221986531      0.970075504579928     -1.648232497198351
O      -0.258493930492954     -2.241749890756739     -0.633207057466531
C       0.781024359039823     -1.390971778269379     -2.630682934041042
H       1.492035454804657     -0.598777074497023     -2.732079535438204
H       0.101031878844325     -1.542768705823531     -3.462321822110932
H       1.288085890558007     -2.345955173774427     -2.475049392473811
22

C      -0.197690616403000      1.843381634769039      1.185871038756344
C      -0.985145962428938      0.579609309614206      1.477824869311979
C       0.068810800508497     -0.420739583527636      1.898689612376670
H      -1.773293211230351      0.612713196895165      2.174863298691618
C       1.246410130097880      0.011224554502027      1.450352454042932
H      -0.291444513528831     -1.331732051324630      2.345116543019770
C       1.038537886202546      1.202246286666100      0.627041171157371
H       2.148190073966172     -0.487074044885195      1.785835354874197
H       1.793581264957814      1.835408036335764      0.127887396200511
H       0.074416168709137      2.368512350193242      2.152717918120457
H      -0.680438401752202      2.620771101081743      0.586721571095059
C      -0.389783772116793      0.114946265254559     -0.900915567638645
C      -1.515304754167184      0.146832279621812      0.066318675251736
H      -2.274086471081582      0.808124792236596     -0.255950557201010
H      -1.984990824716419     -0.829387154207696      0.264435834993581
C      -0.046672974942521     -1.269781636815440     -1.371243152048515
H      -0.425199012518324      0.862233841240713     -1.645167836320032
O      -0.283381208169860     -2.250662353949342     -0.671561572058181
C       0.761140775846549     -1.383055862724504     -2.656872138892501
H       1.594514828654821     -0.598964397393328     -2.850868313758573
H       0.141826723546002     -1.579097466921116     -3.568893172586937
H       1.213125822717381     -2.427879492307991     -2.605577373930669
22

C      -0.206220911293116      1.827925673560796      1.226219470105351
C      -1.002600259553036      0.577804181551082      1.522477379745475
C       0.050305637480814     -0.414770733709637      1.885299870790255
H      -1.937911883411587      0.644563382143615      2.197482335653346
C       1.274237355889398      0.037240680074055      1.466599745708417
H      -0.135904447628370     -1.449719030965248      2.236630009594057
C       1.006618361252137      1.187667654707325      0.615274349351557
H       2.201175526582622     -0.458939435559630      1.792066106946848
H       1.799763027535746      1.690349823475230      0.080652174807757
H       0.027116663952516      2.265347439950942      2.177076626093372
H      -0.737427667970975      2.577748122377045      0.616688261076192
C      -0.325396352567291      0.127188986614427     -0.872975543132539
C      -1.515166309410405      0.143589941494288      0.052073858945843
H      -2.342133148703855      0.856457679573995     -0.264476604905568
H      -1.906290849805711     -0.866249486989536      0.154021743831490
C      -0.043598330561439     -1.216488356728431     -1.375361348941128
H      -0.312019139761687      0.849243868551942     -1.747278305780112
O      -0.310558165825930     -2.246309381515156     -0.718807013426160
C       0.752821150887079     -1.399356269663478     -2.690215859045147
H       1.514679719105358     -0.720391193182216     -2.919517372904135
H       0.155031568967797     -1.479637777232153     -3.618617854838523
H       1.170140543099019     -2.371240123192323     -2.690679219560340
