22

C      -0.054358877019910      1.818292036192819      0.978000695886790
C      -0.885130400871850      0.756600608199369      1.646415371213540
C      -0.008396110223220     -0.265458063823011      2.008732505439470
H      -1.784426625062059      0.987833627452589      2.204802340157830
C       1.193718366157370     -0.113870754970751      1.298685222592910
H      -0.262245946600830     -1.114433596881321      2.628290239716101
C       1.120422421893490      1.020418721708359      0.528661857645340
H       1.993221352956530     -0.841390399401481      1.280148592263270
H       1.895057938714940      1.397305068361709     -0.125190678932640
H       0.287890694966570      2.516734345025499      1.757598249308760
H      -0.555458155466170      2.403955993682249      0.209272238163790
C      -0.700163294135400     -0.034993348405441     -1.014957068363840
C      -1.714487045356380      0.033886352619679     -0.075679580887860
H      -2.449619693011539      0.827769164010049     -0.151553653547790
H      -2.075477670016270     -0.904102434507051      0.329249252262580
C       0.037995126778830     -1.276911931387211     -1.164452438837120
H      -0.512837261450720      0.773727152348119     -1.710901131945380
O      -0.108000216134870     -2.202618371901111     -0.379100983467770
C       0.980229405324210     -1.405757663678131     -2.335145058936740
H       1.363078896085740     -0.442711049025371     -2.678088653987070
H       0.434233439777440     -1.866991205201431     -3.164376608054930
H       1.804753652694100     -2.067284250418121     -2.070410707689250
22

C      -0.127244401188457      1.869537771287415      0.873697351033333
C      -1.055926903781801      0.707197777397089      1.389453912415452
C       0.040284888010970     -0.259370101591677      1.864756728527788
H      -1.715278685617205      0.973239564367430      2.181003213784604
C       1.064942214018983     -0.091098612947407      1.044255376550303
H      -0.033088400627886     -1.040580497280684      2.618568838017802
C       0.739082188881425      0.956696507257185      0.047361940400086
H       1.975296268570544     -0.653461907110573      1.100062933580767
H       1.558474442435480      1.310205306248370     -0.522096282103333
H       0.552301083801697      2.439617319763935      1.538057895752294
H      -0.735930025757662      2.686352799788262      0.444275447532416
C      -0.287634548315263      0.226341612722988     -0.859763571799633
C      -1.528273886588967      0.215985498263354      0.009770997258425
H      -2.248922453401179      0.830360986118332     -0.513853810186075
H      -1.830792412003211     -0.892314519601629     -0.063424003124294
C       0.235230572368089     -1.173269949347718     -1.153193342651468
H      -0.309474484515395      0.791225248509601     -1.806941621767751
O      -0.028452536447540     -2.179576846247997     -0.552150572325869
C       1.079380920155895     -1.277393724260217     -2.402423695339902
H       1.776707930244431     -0.457936136023293     -2.505129318622518
H       0.368357684204552     -1.274367157987219     -3.213143436033727
H       1.643156263825039     -2.266520985937785     -2.359877567987405
22

C      -0.233524990242659      1.886191580666664      0.778038571524648
C      -1.042538295393264      0.664306210463318      1.201074557015481
C       0.065105919758907     -0.170668336442237      1.830038873207656
H      -1.950118581081021      0.853437354053039      1.834328026442962
C       1.182050699637059      0.192389612725990      1.175265138639239
H      -0.042982110386886     -0.943472513926681      2.599177548238038
C       0.832614264511322      1.090590876106625      0.047536348154445
H       2.150812362862142     -0.207106688294892      1.408489917467381
H       1.628295979481479      1.645738535748893     -0.454856613111173
H       0.196355314089983      2.604639732223490      1.467042281470904
H      -0.770358468903877      2.517200775728008     -0.008535669923768
C      -0.309141838371554      0.240531918133977     -1.035208660879414
C      -1.533241878854901      0.046943857169824     -0.100599217657043
H      -2.290306125052180      0.706251445124291     -0.490766189652067
H      -1.824996892574478     -1.035741646298553      0.045937506370742
C       0.289797248743739     -1.079963357090798     -1.375329228548209
H      -0.468736777288300      0.799828425111881     -2.021414439480480
O       0.063856092642912     -2.094394182988364     -0.766258337929274
C       1.154715931564007     -1.200963694467133     -2.611272134708330
H       2.203795540057267     -0.855714093026681     -2.454449595637260
H       0.587119520653983     -0.638240006144737     -3.361366264958076
H       1.212039529693789     -2.339044351694171     -2.865076324801064
22

C      -0.394208706217418      2.039184601274594      0.689448289346183
C      -1.027347927611592      0.767514384144381      1.174479861664731
C       0.052067520503846     -0.029848696956105      1.787816923687893
H      -1.914907314642445      0.898076816640678      1.887271565947838
C       1.166389124081732      0.248723959005248      1.084770804886714
H      -0.229469506728394     -0.758019243444743      2.555620595830560
C       0.736227841849942      1.189539086072745     -0.107846062505161
H       2.087513339454864     -0.253278538261957      1.254964186508703
H       1.550540568934086      1.699135713374266     -0.663403376193765
H       0.131617535886549      2.496964086870287      1.508447427549531
H      -0.955331671695454      2.700332222789133      0.009902884055161
C      -0.302045001713575      0.289994850390704     -1.044278615659512
C      -1.511064616997851     -0.049909029356529     -0.059595369025262
H      -2.543008853235102      0.340416017538386     -0.325431974062891
H      -1.575703288500437     -1.119547572158931     -0.014683302032889
C       0.414892569904380     -1.084474253783190     -1.543982219073836
H      -0.572577742366988      0.760843650616949     -1.981879600067014
O       0.276730228374676     -2.190980963121736     -1.062695743074062
C       1.307274121590212     -1.024520978622979     -2.789097006029182
H       2.327045580779599     -0.771721964333495     -2.531288245911967
H       0.890047928925767     -0.235631572810457     -3.411860419699494
H       1.239265267289397     -2.061483727382919     -3.230085295882777
22

C      -0.464401820041108      1.924003234514036      0.468819731739396
C      -1.104675524548535      0.775095757665003      1.143589582389578
C       0.187124450682122      0.071895990526130      1.818597683918971
H      -2.001173045906874      0.866688322841545      1.782558189373909
C       1.159784928648790      0.192106688462922      0.907412146278121
H       0.199393920141195     -0.377340545547403      2.838286630744334
C       0.625160100240885      1.042741128162821     -0.176350288527922
H       2.112286953411773     -0.293543649036936      0.930079128841288
H       1.426571054168436      1.417931006865911     -0.851181871888218
H      -0.024275824091934      2.678718778699113      1.166983199845392
H      -0.920125654843890      2.446565510771067     -0.402713646914028
C      -0.334083805258226      0.208129153842615     -1.115118715212402
C      -1.481383460988257     -0.032745136095992     -0.216631081646016
H      -2.480522992949969      0.267707507089103     -0.625065917665998
H      -1.526961660134997     -1.078662199950124     -0.114266842674627
C       0.506227999395429     -1.001218984403591     -1.661266905629295
H      -0.523435232183504      0.799216017043170     -2.006980043515666
O       0.335808611041225     -2.121601276889633     -1.228823352490181
C       1.475228166598318     -0.534547313412232     -2.712922670570996
H       2.345654029692263     -0.042047045067024     -2.231909066363640
H       0.994008363538960      0.235554068987658     -3.355577035789451
H       1.663003981498569     -1.461014920598483     -3.214277206407172
22

C      -0.575175495448091      1.971111859296838      0.504741519789176
C      -1.124738020714234      0.702587407435016      1.152222320381734
C       0.164569297438319      0.075378501526432      1.718203000998368
H      -1.997830946078510      0.608049650151400      1.771835523701087
C       1.116348978156189      0.314249400700970      0.806105136601401
H       0.148419434785035     -0.706360209149938      2.539841900055229
C       0.536473450476739      1.243205910847138     -0.223575490433158
H       2.136334739706961     -0.007514746513160      1.005449474279202
H       1.308075584227922      1.716599415299185     -0.822184753456199
H       0.004438370220895      2.727769560562594      1.128641770363063
H      -1.296622118043112      2.476041452978930     -0.147261796926441
C      -0.178089995331356      0.315748787814523     -1.134141864818323
C      -1.418912955712947     -0.117495598256481     -0.277117556730736
H      -2.389816558637793      0.120201719604050     -0.825054721467476
H      -1.445490987881705     -1.177756091725770     -0.094955561761015
C       0.630038355065999     -0.915350682180082     -1.777732162098217
H      -0.538147181744792      0.931185246257613     -2.061180916892325
O       0.290297022162934     -2.079421437665088     -1.625124512823608
C       1.699805548764093     -0.515606774943196     -2.724873678688653
H       2.365890790351961      0.248375836962075     -2.160800298380330
H       1.149523319997754      0.028323739887322     -3.521659827781219
H       2.128937497440460     -1.405339978917255     -3.115566692975333
22

C      -0.647670453221057      1.862668912482688      0.448919781219195
C      -1.051498846466844      0.510157680378134      0.974780330107930
C       0.256983245994233     -0.023291164519946      1.524863080455575
H      -2.020231046106716      0.558173788616274      1.526119992333701
C       1.162620560439403      0.709297076740496      0.887183223205382
H       0.384007411074414     -0.609121746209985      2.462041116493259
C       0.579626126121174      1.443218932460496     -0.290651744787330
H       2.216046943134131      0.504896900708765      1.153453085299290
H       1.351261698567810      2.001618131111215     -0.842182418707001
H      -0.368147681444797      2.564814125562171      1.235312821000662
H      -1.441508760891010      2.196569295215905     -0.193532382078595
C      -0.193774325228106      0.334056994610932     -1.236870226835424
C      -1.278395626186330     -0.232415400531173     -0.268578863847057
H      -2.216383154828348      0.080044080092083     -0.774588973544341
H      -1.272550034800814     -1.323106694731051     -0.124902576730915
C       0.552224232851933     -0.785350433380042     -1.868207736419153
H      -0.525660488307459      0.809273412469288     -2.167468861491590
O       0.133944335225361     -1.926082570234877     -1.868775518423648
C       1.832692303868930     -0.483681255096778     -2.665786461227154
H       2.537340042681544      0.041833856036387     -2.028800022505379
H       1.559615774164740     -0.061906668419788     -3.652484724798965
H       2.231059592717127     -1.465094677328638     -2.928012581212308
22

C      -0.654046546922495      1.932075571652186      0.415495099791577
C      -1.021774569714559      0.529720018667328      1.045828283575704
C       0.310040182329521      0.059061273258342      1.498026594735955
H      -1.833818009758710      0.519775405979588      1.806121332931203
C       1.194314292841703      0.594406216440490      0.610949895239145
H       0.317191389178594     -0.712016945704121      2.279650580536580
C       0.452881706987199      1.418941310002110     -0.464446812766200
H       2.299462856882235      0.583964779709092      0.877198369025222
H       1.182289830611037      1.970747685400964     -1.115028140307099
H      -0.214509803207752      2.593981807815497      1.161500552866918
H      -1.458832450384416      2.387341572539974     -0.162251815549468
C      -0.308573512779010      0.330838131100608     -1.240034372896735
C      -1.282950310748772     -0.255888721637689     -0.245621972421963
H      -2.206307641334950      0.132650816505136     -0.649498428566538
H      -1.367015742822982     -1.351390791399601     -0.245355751882252
C       0.579981919068633     -0.712131941028014     -1.988968111774103
H      -0.823900089930373      0.703443138623361     -2.169278656668379
O       0.242624725645106     -1.859948623029865     -2.088757443368634
C       1.978876650535804     -0.308746776886129     -2.598439444411332
H       2.675335513500059     -0.009270447406004     -1.827546658864368
H       1.734754602131824      0.453988318876406     -3.419170277846502
H       2.371839573359670     -1.250100928147859     -3.089106783223282
22

C      -0.665882406234138      1.898601704243500      0.414374437477676
C      -0.950822997200773      0.522830022784095      0.967974367870205
C       0.515909187430825      0.063237721477445      1.380976320558169
H      -1.734988190020790      0.393552929807992      1.713846342930947
C       1.245353029431412      0.610308199344950      0.438252354795736
H       0.802383636681307     -0.616223811447679      2.189761904958995
C       0.408753952428054      1.334050786356436     -0.566336605112644
H       2.339205498241588      0.401160984400668      0.339602831617964
H       0.980326116240036      2.095673950487843     -1.106298057622774
H      -0.142955538694748      2.574227645713461      1.121365392244620
H      -1.478358238249981      2.409191112206975     -0.127773831966201
C      -0.334305551369777      0.320722819054268     -1.414610840514611
C      -1.327746923235234     -0.189152625884301     -0.392122452213395
H      -2.364845120010479     -0.109652183601814     -0.690369232356708
H      -1.149544353038463     -1.322070703727714     -0.270790044688976
C       0.602131951534706     -0.692949645988666     -2.045727041014199
H      -0.725685812755565      0.772386710756827     -2.366929395995231
O       0.278926437927441     -1.816501552520215     -2.047824778765659
C       1.877106660030060     -0.042159760476302     -2.491937815240988
H       2.492596031926905     -0.075595798539684     -1.591712127014184
H       1.467683587047982      0.958629166250772     -2.642491739490917
H       2.326295407832499     -0.615116473624588     -3.360736966114537
22

C      -0.822904692677306      1.854410345412060      0.584325800763638
C      -0.917752121752313      0.401849820073701      0.949833633644742
C       0.475358565092414     -0.005611616640414      1.230733486499612
H      -1.626760449050636      0.122989953711222      1.704371660795803
C       1.291523052630194      0.713312873812294      0.401011164992752
H       0.807993346993327     -0.871617399841825      1.848582079651356
C       0.332013931566051      1.543531920666699     -0.484081072107315
H       2.364428725425955      0.496707156164476      0.354778090772506
H       0.712667566714218      2.469878776306885     -0.932237113711412
H      -0.392425316765508      2.586837374287837      1.277885999138066
H      -1.756324132097609      2.224814203949594      0.093230270736078
C      -0.344743506623456      0.493709807951636     -1.455070926871015
C      -1.313338504019629     -0.248328742067128     -0.519601288004248
H      -2.342192393712490     -0.015356487769473     -0.777012690003604
H      -1.133572496295058     -1.360182589546920     -0.692723559232655
C       0.691892566591813     -0.564619189068182     -2.089439526782439
H      -0.850039951257168      1.029091618655351     -2.281231028085963
O       0.422029120414077     -1.791760262091711     -2.011141180023277
C       1.983129205597040     -0.047731912925059     -2.867976644411102
H       2.884141933943579     -0.417305655083993     -2.328723013677464
H       2.031560134046504      0.994746765756375     -3.035075709218944
H       1.752201214827916     -0.649081044823135     -3.801108377238936
22

C      -0.808222791185094      1.853137950304391      0.406750754002924
C      -0.975913561309110      0.335372472405013      0.771396645254521
C       0.436546128320299     -0.087551839868500      1.182174982657859
H      -1.796270848291297      0.087762968817890      1.507601366320500
C       1.276044418895902      0.660506039837410      0.475466271293962
H       0.598554595595782     -1.008431096755941      1.796093547423677
C       0.513766913452684      1.544062887749299     -0.436124678501114
H       2.349431359622239      0.621040214124825      0.360124313951133
H       1.104648938734265      2.427012746401578     -0.766234212207623
H      -0.704425934179065      2.435834207077992      1.336160956868195
H      -1.602879628520928      2.303492343106545     -0.228949881939169
C      -0.307439460897674      0.518701276149720     -1.502936033219364
C      -1.332705171284320     -0.265238875173886     -0.535054772324794
H      -2.378023093005119     -0.171005830874281     -0.760133059893347
H      -0.997777531127991     -1.295287663425212     -0.620581576550470
C       0.805752131636744     -0.474018855793539     -2.078885787146723
H      -0.811924268966878      1.156770552575439     -2.268667066748451
O       0.601598472570789     -1.685332198335019     -1.938158049810272
C       1.756035044710551      0.141615472274088     -3.137244197163677
H       2.668831631037847     -0.476527715034720     -3.186526015221534
H       2.040756643710397      1.070268044198274     -2.709826186382402
H       1.081312631091186      0.267528227517296     -3.932892661455373
