22

C      -0.054358877019910      1.818292036192819      0.978000695886790
C      -0.885130400871850      0.756600608199369      1.646415371213540
C      -0.008396110223220     -0.265458063823011      2.008732505439470
H      -1.784426625062059      0.987833627452589      2.204802340157830
C       1.193718366157370     -0.113870754970751      1.298685222592910
H      -0.262245946600830     -1.114433596881321      2.628290239716101
C       1.120422421893490      1.020418721708359      0.528661857645340
H       1.993221352956530     -0.841390399401481      1.280148592263270
H       1.895057938714940      1.397305068361709     -0.125190678932640
H       0.287890694966570      2.516734345025499      1.757598249308760
H      -0.555458155466170      2.403955993682249      0.209272238163790
C      -0.700163294135400     -0.034993348405441     -1.014957068363840
C      -1.714487045356380      0.033886352619679     -0.075679580887860
H      -2.449619693011539      0.827769164010049     -0.151553653547790
H      -2.075477670016270     -0.904102434507051      0.329249252262580
C       0.037995126778830     -1.276911931387211     -1.164452438837120
H      -0.512837261450720      0.773727152348119     -1.710901131945380
O      -0.108000216134870     -2.202618371901111     -0.379100983467770
C       0.980229405324210     -1.405757663678131     -2.335145058936740
H       1.363078896085740     -0.442711049025371     -2.678088653987070
H       0.434233439777440     -1.866991205201431     -3.164376608054930
H       1.804753652694100     -2.067284250418121     -2.070410707689250
22

C      -0.063812571755735      1.816687241460317      0.982269195565793
C      -0.885764812373318      0.754899622145185      1.640152287860818
C       0.005008317523220     -0.268427285773040      2.012889413278853
H      -1.786229185277865      0.978160569971234      2.239379979909623
C       1.197232664334472     -0.110930636532611      1.302680378862974
H      -0.252861222833159     -1.095128140794884      2.652634294986281
C       1.122023542540937      1.026222981982251      0.532556831372358
H       1.989809746253717     -0.833518352129562      1.308750293435462
H       1.886684794820263      1.379130544575145     -0.118416166957226
H       0.276196430792796      2.535260904574221      1.747517749145218
H      -0.563134240856458      2.430275653354761      0.195169567296485
C      -0.701587130179549     -0.026829547992405     -1.012135087392100
C      -1.712180199019131      0.032329779210102     -0.080950104434256
H      -2.437546931456918      0.815852876693278     -0.152583580140135
H      -2.098306351081354     -0.907965420957882      0.288614497926084
C       0.035786435224787     -1.271641253647664     -1.168864756139901
H      -0.515436135764113      0.764407889694535     -1.681029014905773
O      -0.099014239494783     -2.206387606783502     -0.388810521953936
C       0.982585241043022     -1.407017546898901     -2.331010601850426
H       1.342073921967662     -0.428385705041714     -2.665845139435696
H       0.445294021474506     -1.864525557288556     -3.135524850633997
H       1.829352794356217     -2.044529795640949     -2.070445955117826
22

C      -0.073013571211086      1.815204880517763      0.986228112675293
C      -0.886316740943809      0.753216873588207      1.634587595752924
C       0.018035170523576     -0.270835805825171      2.016754835053210
H      -1.787203470073439      0.968060492892235      2.270768694457344
C       1.200852444537497     -0.107690670036187      1.306830668602456
H      -0.243665442857592     -1.081525359960773      2.677914436315100
C       1.122883173415220      1.032281180846772      0.536963125446355
H       1.989374802951850     -0.829521828993331      1.333701309019386
H       1.884865570127254      1.366012924732366     -0.119079790536772
H       0.264692628788008      2.550918269387159      1.738103976857053
H      -0.569080260582931      2.453750558795915      0.182738838329166
C      -0.702381934400893     -0.019232542153324     -1.008865384923128
C      -1.709842627424689      0.030792991496202     -0.085796161181004
H      -2.430548343707868      0.809392272668546     -0.155268255135024
H      -2.122145357859025     -0.914032980704860      0.248266967379763
C       0.033349984463906     -1.266612720650384     -1.172986593112018
H      -0.516968113645567      0.766707802743904     -1.661618942594591
O      -0.089741103046766     -2.210450240022151     -0.398430464873176
C       0.985053365545321     -1.407914243425792     -2.326122630299558
H       1.322236186099527     -0.416337054853813     -2.656038108940290
H       0.452232984225489     -1.866416448222925     -3.115810848882247
H       1.853384193148858     -2.023270041021191     -2.070748795098614
22

C      -0.082623546394859      1.814516384169535      0.989739362756541
C      -0.886966891017528      0.751392940582720      1.630038652340329
C       0.030404891304764     -0.272732684573961      2.020268403129288
H      -1.781064111057227      0.955565805729384      2.294184261255224
C       1.204403584937683     -0.104418214481505      1.311403819394892
H      -0.234048490657484     -1.074591585540135      2.702413749031369
C       1.122776723734918      1.037651877550370      0.541803015923254
H       1.997087098886575     -0.827041188293938      1.354621279932809
H       1.891080277394981      1.358009860466115     -0.128059150057616
H       0.253721440263050      2.564229211027753      1.728649465870742
H      -0.570655305616919      2.469374760909326      0.178125512257493
C      -0.702306805206738     -0.012807208170691     -1.004877610505382
C      -1.707955681978565      0.029046017568463     -0.090028308683103
H      -2.429489436857533      0.811509062874288     -0.158671001352463
H      -2.143892201918197     -0.922236746824677      0.209235601471115
C       0.030923527848137     -1.261604076237548     -1.176280802428509
H      -0.515580944443849      0.784654883313521     -1.656953356985414
O      -0.080833457259666     -2.214404508994981     -0.408050633393435
C       0.987492712368586     -1.407592718964599     -2.320612488797478
H       1.306061274908037     -0.405798900394385     -2.650749068774705
H       0.454125612462837     -1.875503790745152     -3.109980924045834
H       1.877801033575035     -2.003355983592175     -2.068938089394801
22

C      -0.092769752628546      1.814874439879273      0.991972335439925
C      -0.887770331447362      0.749031180599432      1.626531532230495
C       0.041699325936554     -0.273764828646201      2.023517853043708
H      -1.766439363287003      0.940998074100685      2.309411676544467
C       1.207597605208853     -0.101189503697422      1.316059583285286
H      -0.223171804505265     -1.070633204191105      2.725186289136139
C       1.121282261116217      1.042716928295568      0.546875539890086
H       2.010929234805044     -0.826280754581412      1.372575452846291
H       1.903426857732961      1.357252800154722     -0.142068520259133
H       0.242341671417827      2.575430070858840      1.722026614456390
H      -0.568648176334004      2.476400571034431      0.183882190808046
C      -0.701616278489508     -0.007031384251966     -1.001023865029094
C      -1.706605571461511      0.026979698243207     -0.094044655757467
H      -2.435028558932243      0.820720939539194     -0.160491723888727
H      -2.162215773017503     -0.931923930614275      0.173226287628625
C       0.028900488200003     -1.257223185432401     -1.178761192053276
H      -0.509754521872231      0.813845210818182     -1.664017633443861
O      -0.072079042053060     -2.218282297359427     -0.417985345508955
C       0.990727024448069     -1.406359609471448     -2.314226911596228
H       1.292540483266576     -0.396332249147811     -2.649052869699407
H       0.451983043039838     -1.888855802318784     -3.115122326581455
H       1.901092054090727     -1.983868649767479     -2.063477984402202
22

C      -0.102732544434316      1.815969743890129      0.992801876440308
C      -0.888815267093416      0.745746003118910      1.624171785395185
C       0.051136737603426     -0.274548196982922      2.027235338799013
H      -1.745136171687101      0.925274203615969      2.316773772072902
C       1.211144673016657     -0.098416371901663      1.320947748929590
H      -0.210281971406318     -1.066485363301908      2.744687330185502
C       1.118982001649605      1.047416904508135      0.552379319870915
H       2.028476951106072     -0.825371754172516      1.385980674055742
H       1.915040506571839      1.361853598015985     -0.157089837436498
H       0.230429288573660      2.585535115892769      1.719079545229167
H      -0.563022390022779      2.473349977955859      0.197874932401689
C      -0.699976903419017     -0.001429520898212     -0.997864622783329
C      -1.705779265379778      0.024772117286440     -0.097414926065027
H      -2.444585794595880      0.834785051476763     -0.159161405901021
H      -2.177017823649098     -0.941256616921580      0.139911568806909
C       0.027552142713873     -1.253182760397016     -1.180408133603694
H      -0.502733001765901      0.844308565952303     -1.677344441839526
O      -0.063090318940975     -2.221928671101324     -0.428253713058024
C       0.994108354719458     -1.404375065966750     -2.307426138549159
H       1.281359818937288     -0.388672694386585     -2.649450343912083
H       0.447634697472989     -1.907075713353854     -3.125803948209054
H       1.921359078729194     -1.963885668127532     -2.056130898015776
22

C      -0.112411699792384      1.817448963672592      0.992298143515087
C      -0.889535465019149      0.741757917182104      1.622949277888575
C       0.058720888167968     -0.274646295777353      2.031312865686343
H      -1.720692792443164      0.908100859400279      2.319707053424156
C       1.215392245634124     -0.096060693392991      1.325804995837194
H      -0.195189952007615     -1.062208914687857      2.760287717689085
C       1.116864842818819      1.052062959173603      0.557455014640984
H       2.047072939260189     -0.821265934773734      1.393292329410813
H       1.920480065855227      1.366119054791607     -0.169981195471451
H       0.217308674345331      2.593017613584489      1.718633044173651
H      -0.557209719678508      2.463372477712787      0.216795822154292
C      -0.696767017124779      0.004508854919629     -0.995699393472722
C      -1.706666626421944      0.022539084898938     -0.100179714836945
H      -2.452168465059315      0.848812380089525     -0.154624480459471
H      -2.188150419485944     -0.947850873515576      0.112077364469096
C       0.026902333703706     -1.249322586515310     -1.181215553858272
H      -0.496127883835977      0.866915938126359     -1.688182985087183
O      -0.054396969862912     -2.224832611527267     -0.438663355591153
C       0.997420766290359     -1.401679023329818     -2.301365334356235
H       1.273931661607327     -0.386662245978995     -2.651909289107117
H       0.444650684118328     -1.926621184881105     -3.135283633712372
H       1.935317490395676     -1.943020227186831     -2.046003312216018
22

C      -0.121102981672222      1.819263191457371      0.991319100784339
C      -0.889748089575781      0.736972446580820      1.622281090474669
C       0.064626696637321     -0.273749254292057      2.035896935135022
H      -1.697045972832717      0.893370037545648      2.318034214895945
C       1.220691767292402     -0.094339643458439      1.330824948012746
H      -0.179363327555427     -1.057742073585185      2.769335245021634
C       1.114884919146316      1.056435004650640      0.562291928840449
H       2.065628482590603     -0.811488366494536      1.398081591542160
H       1.914799948502078      1.370595576117966     -0.175608593658763
H       0.202695807261964      2.594513997070362      1.718808272171503
H      -0.554008406154930      2.450682586044443      0.235272570127649
C      -0.691710488304210      0.011203439221408     -0.995119612083338
C      -1.709570011476439      0.020615684737770     -0.101942307528257
H      -2.455310403949494      0.860251257540737     -0.148733562794623
H      -2.196018490787076     -0.950170906589654      0.087454298179061
C       0.026338791384169     -1.245673323747240     -1.181754627796232
H      -0.489870443309668      0.877791721473773     -1.693187699053074
O      -0.045929502705009     -2.227532930879932     -0.448856114028604
C       1.000566121175114     -1.398488012671389     -2.296664689538960
H       1.269545511258603     -0.390308980825339     -2.657222364372768
H       0.446763935544052     -1.943028930494212     -3.138721535390940
H       1.941693328251087     -1.922521125791220     -2.034836070506114
22

C      -0.127852643264750      1.820932024788281      0.990303583478180
C      -0.889278807811079      0.731326197462115      1.621755391225274
C       0.068909662113028     -0.272082321601868      2.040826978461450
H      -1.682623566926622      0.882950958708256      2.316516092903933
C       1.227389992434422     -0.093158189654887      1.335842129450682
H      -0.162297025842483     -1.054245094203489      2.772229945654291
C       1.113018400668613      1.060309659984519      0.566848461919875
H       2.081268481435750     -0.796552608493459      1.398193728920531
H       1.898304060121623      1.375593035542811     -0.173567088719367
H       0.187193795732383      2.590347334651075      1.721650047294150
H      -0.557190699093932      2.441825314791001      0.247341969075979
C      -0.685078783975343      0.018335131113838     -0.995861485351456
C      -1.714431500982020      0.019136539154883     -0.102579277988303
H      -2.452466694347314      0.864732342065925     -0.141878479258826
H      -2.201407399388661     -0.950413033268594      0.064439564139461
C       0.026548515618346     -1.242632804058507     -1.182080855505536
H      -0.485831904103935      0.874767485271129     -1.692235985168763
O      -0.037753734766223     -2.229545829139888     -0.458874303856770
C       1.003170253316117     -1.394498889934356     -2.293216698472646
H       1.268360633191437     -0.395185461355814     -2.665476303229440
H       0.456586798085266     -1.952502473199857     -3.132597449359439
H       1.942045896436079     -1.902800742453985     -2.021612659667845
22

C      -0.133483331508667      1.821862037457766      0.989444940447874
C      -0.887894046104788      0.724620765011941      1.621650905693642
C       0.071676319406269     -0.270258604079662      2.046058370158535
H      -1.680055484792540      0.877344289498699      2.319856588990822
C       1.235017610773623     -0.092164361922142      1.340933916077400
H      -0.144047252568955     -1.052107948017991      2.768591474635000
C       1.111060421140866      1.063493385261143      0.570527607625944
H       2.095276081570859     -0.776946427650217      1.393811835256553
H       1.874355061473673      1.380342439859164     -0.164659784515673
H       0.171358052980081      2.581746356632995      1.728062097975225
H      -0.569755056063373      2.440207114341671      0.248900316524532
C      -0.677513041235642      0.025972245967843     -0.998096195353471
C      -1.720584753570607      0.018559040388566     -0.102488841492198
H      -2.442626497942066      0.865711894228320     -0.134910175434787
H      -2.203361112752319     -0.949394712490050      0.046004266976843
C       0.027334948759226     -1.240330279964047     -1.182037116739977
H      -0.482456883326440      0.860115397555374     -1.683777635442014
O      -0.029859969045731     -2.230687047665052     -0.469063846556141
C       1.005011072958828     -1.390175708021339     -2.290431126858486
H       1.269476669048802     -0.398499605806275     -2.677778125586480
H       0.474980211131934     -1.955995256234950     -3.117578171357927
H       1.937004513818404     -1.884019755479380     -2.007073490269331
22

C      -0.137634107543257      1.821791559688738      0.988878739052465
C      -0.885691255141223      0.716811039425780      1.621938055204339
C       0.073255585791356     -0.267766832905499      2.051382429337749
H      -1.687347496770680      0.875984637270485      2.327844285801449
C       1.243358629595577     -0.090903795537605      1.345592229233193
H      -0.127671025464496     -1.053983595174337      2.762850423850015
C       1.108322736868026      1.065807279372318      0.573627613751211
H       2.108833255461179     -0.755794917451238      1.387514400266705
H       1.846565519520755      1.387023638068394     -0.153134571960955
H       0.154955669204650      2.568498322361304      1.736588317288594
H      -0.593524411747322      2.444994290577295      0.240876261434196
C      -0.669309513127855      0.033585476818603     -1.000169785014527
C      -1.727331194074558      0.018550012270895     -0.102048561497996
H      -2.430003726807393      0.863473024139593     -0.126603323234187
H      -2.202131607928148     -0.948519085665707      0.032382842006908
C       0.028909726400926     -1.238230463596227     -1.181797849135828
H      -0.479755632814870      0.840935734188670     -1.672991025962454
O      -0.022135126461423     -2.230766306258009     -0.479588611675770
C       1.006578178979308     -1.385311000509891     -2.288706979499187
H       1.272332325454513     -0.401650751480271     -2.693569206499225
H       0.501693319658783     -1.956266227885112     -3.096172295585353
H       1.931205923281037     -1.868412953732510     -1.990840641303347
