22

C      -0.054358877019910      1.818292036192819      0.978000695886790
C      -0.885130400871850      0.756600608199369      1.646415371213540
C      -0.008396110223220     -0.265458063823011      2.008732505439470
H      -1.784426625062059      0.987833627452589      2.204802340157830
C       1.193718366157370     -0.113870754970751      1.298685222592910
H      -0.262245946600830     -1.114433596881321      2.628290239716101
C       1.120422421893490      1.020418721708359      0.528661857645340
H       1.993221352956530     -0.841390399401481      1.280148592263270
H       1.895057938714940      1.397305068361709     -0.125190678932640
H       0.287890694966570      2.516734345025499      1.757598249308760
H      -0.555458155466170      2.403955993682249      0.209272238163790
C      -0.700163294135400     -0.034993348405441     -1.014957068363840
C      -1.714487045356380      0.033886352619679     -0.075679580887860
H      -2.449619693011539      0.827769164010049     -0.151553653547790
H      -2.075477670016270     -0.904102434507051      0.329249252262580
C       0.037995126778830     -1.276911931387211     -1.164452438837120
H      -0.512837261450720      0.773727152348119     -1.710901131945380
O      -0.108000216134870     -2.202618371901111     -0.379100983467770
C       0.980229405324210     -1.405757663678131     -2.335145058936740
H       1.363078896085740     -0.442711049025371     -2.678088653987070
H       0.434233439777440     -1.866991205201431     -3.164376608054930
H       1.804753652694100     -2.067284250418121     -2.070410707689250
22

C      -0.043919550149303      1.793684255909415      0.951980301742318
C      -0.930659371638510      0.773406008600154      1.618279269484386
C      -0.005650674635922     -0.247661089126018      1.997291631360165
H      -1.788510620292161      1.149365087320224      2.228886290459385
C       1.271134892916817     -0.119562362018212      1.299800145636252
H      -0.224638298585772     -1.100207344447187      2.716035916268030
C       1.154109091880861      1.016018756316776      0.548952281631593
H       2.058380739962842     -0.839464180766892      1.120253686610080
H       1.943538742442660      1.513142037289872     -0.097426310090579
H       0.143863745850720      2.527534717010175      1.772424512448866
H      -0.657497922827070      2.391129196133605      0.265849049383083
C      -0.675434431864637     -0.065932534537673     -1.008035362582064
C      -1.697203911552358      0.064902281622614     -0.065421034459614
H      -2.352092749519622      0.906944488951356     -0.309952593125896
H      -2.087754936440657     -0.900098764475465      0.211526623658757
C       0.036311549534682     -1.309143651898855     -1.147004613038640
H      -0.516903352878734      0.765272660301763     -1.689457056332419
O      -0.109370398178781     -2.261967300383408     -0.375548822177202
C       0.944823521033357     -1.431814928948098     -2.327883118360975
H       1.337035458777251     -0.431812820162881     -2.518588047288111
H       0.450714440571117     -1.762429868319989     -3.293662128839401
H       1.904319157568638     -1.917750933760955     -2.072946126746175
22

C      -0.070649494645969      1.795453501561506      0.949201637492667
C      -0.923604639215510      0.753352960114002      1.578607837287149
C       0.023847685660998     -0.234821339096640      2.000421556699527
H      -1.738924700412438      1.090665372691412      2.205942881100037
C       1.275781634036711     -0.119285282046910      1.311991937637145
H      -0.209694651317250     -1.009275265151584      2.677678832424084
C       1.183511799255938      1.053304493873319      0.542232657924660
H       2.096048675190733     -0.872301573189584      1.179780714055833
H       1.966147483753649      1.455636076286094     -0.051286320098698
H       0.231864400174580      2.522499930030497      1.740722661331329
H      -0.544694430988210      2.399872972276693      0.116830079944999
C      -0.645759087131329     -0.096186796976156     -0.998430272366278
C      -1.672503579004410      0.095600029614054     -0.049800444632580
H      -2.367327438864329      0.918155889170519     -0.318443268075492
H      -2.243832198161201     -0.860724465651953      0.269592657374462
C       0.016222696975225     -1.369001309264575     -1.136047658103798
H      -0.413557915227701      0.701124550244665     -1.750078225338641
O      -0.118487969049956     -2.308419623808535     -0.375880387707346
C       0.947952928736987     -1.420057408729908     -2.330921858475577
H       1.264431316607013     -0.300914634074220     -2.457516231526750
H       0.521437554860307     -1.734893201585094     -3.253132826548417
H       1.829131000856547     -2.066453948275919     -2.136398085978344
22

C      -0.058953860215508      1.840716820280866      0.940665468247143
C      -0.881183132735607      0.720069178827130      1.523880939816965
C       0.065517473544000     -0.231504764662650      2.007549539285192
H      -1.744855442960176      0.901459967682142      2.180114456667273
C       1.229944666262872     -0.087089866682478      1.315822524397781
H      -0.205380452718412     -1.070112345016450      2.674219078337272
C       1.185030631651717      1.069358067428576      0.537413961247358
H       1.996142226134379     -0.814905101249861      1.408538687381700
H       2.006731152408612      1.448540232256613     -0.091537386669506
H       0.322989575385531      2.544551233200314      1.689180704117936
H      -0.387335790627862      2.360827607940108      0.078112779058790
C      -0.626293906197446     -0.118001962488715     -0.981902657332374
C      -1.667558709994462      0.113283209566830     -0.021645820185892
H      -2.339404857006459      0.924496514373991     -0.229323659595381
H      -2.208893232685383     -0.677793730208161      0.371910650785888
C       0.000046482859750     -1.429634799066147     -1.159490409672205
H      -0.346749870035451      0.571951665093893     -1.758707502466075
O      -0.131612406335894     -2.363859966124867     -0.370544160186117
C       0.978116800723935     -1.390251751510894     -2.327952155612524
H       1.307599874956393     -0.421213514936066     -2.495870346659498
H       0.430388670726371     -1.750783453284899     -3.246739485433416
H       1.709764824360980     -2.182111064047461     -2.175111470874117
22

C      -0.001198062736298      1.876795123856057      0.928269694400302
C      -0.872570401725650      0.705322361152501      1.463422197214844
C       0.063749889292185     -0.242909389339634      2.013503669749937
H      -1.755468790537733      0.808558659208221      2.121754691610409
C       1.224444381637510     -0.051104077927297      1.322825050416045
H      -0.119864537818737     -1.162436237715645      2.635451592105501
C       1.169109538874504      1.066969673749551      0.526466686084621
H       2.058162232718216     -0.732916083812061      1.569111389840781
H       2.010656992596078      1.449148941845168     -0.109784505433820
H       0.256721135694897      2.637333834000643      1.728828694089748
H      -0.460390632666736      2.431950296599529      0.064123819896480
C      -0.620208106938374     -0.149928296148760     -0.957323951973883
C      -1.627531249269103      0.136661964619706      0.018521275118591
H      -2.308366635928124      1.000351758588328     -0.213444231930405
H      -2.169212236358750     -0.770096433579424      0.483824573213381
C      -0.004460733768727     -1.460619652513118     -1.166115935709888
H      -0.415955709244950      0.602626771120794     -1.734278873661286
O      -0.148333197590730     -2.411180734162082     -0.378481292379620
C       0.982783592343769     -1.421799546926897     -2.331430314815878
H       1.519689725426754     -0.441328512501906     -2.569553882076761
H       0.352218982559954     -1.687901351296760     -3.222896094846781
H       1.782447824748979     -2.188425253388392     -2.155372797702440
22

C       0.027158775670154      1.902385757330790      0.920895186566575
C      -0.901916898636267      0.709664285360273      1.408082285757458
C       0.040308498561429     -0.261250584876266      1.988393817081515
H      -1.707771125453751      1.029831605918907      2.070342438248526
C       1.270860114564712     -0.041326453609913      1.374496889151408
H      -0.141228862770951     -1.090511993919535      2.605449204759459
C       1.159125427978295      1.064304120972661      0.481907704047437
H       2.231655794259380     -0.597110034147779      1.499965083845376
H       1.976559244828928      1.435308999631662     -0.069347694843820
H       0.171695669480595      2.590373513998152      1.731895086704760
H      -0.536673052087421      2.491764879456341      0.172007578410563
C      -0.616577513372824     -0.183067568503892     -0.937814582884027
C      -1.572209281037767      0.138984601068543      0.090505203493289
H      -2.217073219547686      0.920435916616792     -0.286675454614671
H      -2.106951799462539     -0.768772955823946      0.417375562492262
C       0.013062771810545     -1.466591527502309     -1.128631748021603
H      -0.513358515173182      0.623999977730479     -1.690737914663198
O      -0.168200072901548     -2.439099743930564     -0.414012576978338
C       0.990867310888145     -1.472323472279224     -2.334300127274546
H       1.532009344772365     -0.509645570658967     -2.498663237365624
H       0.444134039513661     -1.650432260722749     -3.239454592391265
H       1.769119456383733     -2.203502770108895     -2.210933517687076
22

C      -0.002544592861024      1.895218564676515      0.912664026923942
C      -0.925425089434131      0.749953797527573      1.373041612059785
C       0.052187340778598     -0.267317532868036      1.940269129388720
H      -1.659954553943367      1.257500654473260      2.036830768530746
C       1.317029094344481     -0.019083025895869      1.436019060569001
H      -0.294529266574279     -1.052247645739637      2.654348581285989
C       1.146804787432683      1.048326929465475      0.442007459838608
H       2.239072870089575     -0.529350229680207      1.387690372783331
H       2.041550308915195      1.445843101018652     -0.137381525039518
H       0.273074931211566      2.499534774335781      1.832789007867729
H      -0.492672030036551      2.500872135301730      0.165188859383150
C      -0.593697285464872     -0.186351983828275     -0.916955715236306
C      -1.523585628698031      0.114399335240219      0.155803796452754
H      -2.240343956802370      0.839475749559054     -0.320458280486675
H      -2.132635425736924     -0.743992872279829      0.358590497608176
C       0.049722229840423     -1.453024668878681     -1.111579118711328
H      -0.493819283200523      0.488651646506604     -1.743675544870322
O      -0.189354843443225     -2.468515996253056     -0.446046458728564
C       1.001264712430766     -1.516295694741145     -2.319108456992645
H       1.431061820147046     -0.545126214367776     -2.334316414620111
H       0.497578437542394     -1.687367673766776     -3.339408724041834
H       1.722079513760866     -2.371427176229815     -2.250283820070543
22

C      -0.024538819736865      1.857976490863267      0.903119737388533
C      -0.913462722867372      0.808251134074362      1.388928726000727
C       0.081285707821058     -0.241273618285217      1.924637048030537
H      -1.719183445140891      1.132573867214852      2.077398251082878
C       1.318191985275479      0.022728244496980      1.447400639164018
H      -0.330939654108783     -1.018799970786925      2.591420628286960
C       1.129243642101641      1.022131409465837      0.407312171667216
H       2.200356992194474     -0.690960228777034      1.465863831178286
H       1.954890165929590      1.417931704621571     -0.184061709899853
H       0.400741518890229      2.388299396026106      1.774429604152760
H      -0.409256069382964      2.593051136396445      0.130513503434855
C      -0.518857551781307     -0.161411464186129     -0.887443321735382
C      -1.531571209395330      0.084295433155338      0.157701487418711
H      -2.271846357298282      0.816019040969980     -0.225550960920224
H      -2.140530563380907     -0.876691759181104      0.463261699483242
C       0.069017532175355     -1.475236498513094     -1.123592517424395
H      -0.496544569308036      0.415598258608259     -1.847923148600978
O      -0.202329399219652     -2.487789744657906     -0.475634966539298
C       1.008539972605792     -1.559973607059441     -2.297468373020525
H       1.584516531780590     -0.548456729588601     -2.302569858547429
H       0.458470999526186     -1.619567356519800     -3.221941322170269
H       1.677642523404367     -2.417287392653579     -2.175395594868188
22

C      -0.000031351980130      1.861268373136960      0.868348498166563
C      -0.905852937216190      0.790029015215566      1.444619765263784
C       0.084841197054426     -0.172041368450923      1.958521901061227
H      -1.726161734132867      0.918503668236795      2.137425992738744
C       1.308262791363017      0.034982141631905      1.408752707584780
H      -0.139594237622282     -1.046123740292270      2.524887496113591
C       1.089679633400720      0.970679824246173      0.371341653378852
H       2.064474526455000     -0.718091281959248      1.636767781362460
H       1.827697746753731      1.408126088227951     -0.269617977347731
H       0.454670173089748      2.429430801709321      1.686804693044351
H      -0.355103484447737      2.590300641732637      0.166477263462715
C      -0.417146498112218     -0.121939174555611     -0.851075124994194
C      -1.565359804654562      0.055740540768785      0.131434443103105
H      -2.338941430567975      0.732944914212854     -0.168027355608190
H      -1.917646411816245     -0.834650587244025      0.541965227195953
C       0.069931669218236     -1.514497806195210     -1.141736977283998
H      -0.565802868268548      0.460534654425012     -1.760514149601802
O      -0.208876310312019     -2.494230583420145     -0.503906861061853
C       1.027584213308626     -1.575253391788045     -2.262183439438796
H       1.745278394416483     -0.790588606476716     -2.402556903279811
H       0.374965072884059     -1.572807897048970     -3.163138298419665
H       1.654711803707039     -2.457515216324514     -2.132773885549991
22

C       0.023663077666173      1.883844918540749      0.851135481207638
C      -0.917468095498161      0.734304613915937      1.468209868960959
C       0.095879321763278     -0.105827013338000      2.022006727150371
H      -1.724620422888520      0.951222142461957      2.214534180433072
C       1.277337980562214      0.004727383967243      1.389733858638787
H      -0.003221941391074     -1.028026170881306      2.653421755164546
C       1.038015875945844      0.916491021842732      0.289121249540640
H       2.118507207808074     -0.621981443618903      1.580271874620490
H       1.827823114706474      1.308307203831628     -0.424682639582974
H       0.455372398603171      2.538814465642651      1.661626490997904
H      -0.452406615578695      2.539517331465294      0.091144346056235
C      -0.344807619713539     -0.075418997391106     -0.799904728697013
C      -1.537127227333429      0.040485343820954      0.131044518845539
H      -2.467262399769702      0.599771956078049     -0.271312213733392
H      -1.844089645105457     -0.992566911417389      0.516619668371166
C       0.081795663720489     -1.494362872138585     -1.139494639885736
H      -0.478640880554927      0.558910220581504     -1.670674856514060
O      -0.226527381459710     -2.504935882704568     -0.523234171633270
C       1.066889844296788     -1.607245103914820     -2.250992778466398
H       1.822975250389235     -0.803525436177017     -2.375862062896533
H       0.425824524965675     -1.648023935927734     -3.195939820075113
H       1.530366767190000     -2.631512096808567     -2.192102943044338
22

C       0.004456033552260      1.881171383112222      0.841234055677835
C      -0.948467507044085      0.741300175362766      1.445234731645885
C       0.143835612677981     -0.114499465371571      2.119348068848073
H      -1.688601046295244      1.114412150853023      2.139732186965473
C       1.242444263814068     -0.028407389580178      1.368642260201416
H      -0.061681017514418     -0.783558090788892      2.965062947190421
C       0.953472736724957      0.848875172016592      0.158371687549413
H       2.266222407876337     -0.523531560530498      1.410125903574382
H       1.793231335428224      1.102933699062555     -0.462033868004667
H       0.477991344428872      2.535958641905388      1.573510227431171
H      -0.581327265084353      2.438262315386408      0.076558389864979
C      -0.272684277825670     -0.022259817265171     -0.734028238563216
C      -1.481086377056499      0.009649131203741      0.182730342001485
H      -2.309496968340323      0.431253893649988     -0.323733705140929
H      -1.812212080173626     -1.042986186578465      0.286126941740074
C       0.122196606772415     -1.459766159049533     -1.097589881081995
H      -0.298274618186747      0.625673414076749     -1.660072995108429
O      -0.256469080814218     -2.491130962352022     -0.549916565628403
C       1.099870934982419     -1.652434733735499     -2.271631456977838
H       1.838455338532771     -0.790682842145480     -2.271552187342336
H       0.588158483829741     -1.658893900058856     -3.195016422046345
H       1.447396881487889     -2.662488540818734     -2.254706139499564
