22

C      -0.054358877019910      1.818292036192819      0.978000695886790
C      -0.885130400871850      0.756600608199369      1.646415371213540
C      -0.008396110223220     -0.265458063823011      2.008732505439470
H      -1.784426625062059      0.987833627452589      2.204802340157830
C       1.193718366157370     -0.113870754970751      1.298685222592910
H      -0.262245946600830     -1.114433596881321      2.628290239716101
C       1.120422421893490      1.020418721708359      0.528661857645340
H       1.993221352956530     -0.841390399401481      1.280148592263270
H       1.895057938714940      1.397305068361709     -0.125190678932640
H       0.287890694966570      2.516734345025499      1.757598249308760
H      -0.555458155466170      2.403955993682249      0.209272238163790
C      -0.700163294135400     -0.034993348405441     -1.014957068363840
C      -1.714487045356380      0.033886352619679     -0.075679580887860
H      -2.449619693011539      0.827769164010049     -0.151553653547790
H      -2.075477670016270     -0.904102434507051      0.329249252262580
C       0.037995126778830     -1.276911931387211     -1.164452438837120
H      -0.512837261450720      0.773727152348119     -1.710901131945380
O      -0.108000216134870     -2.202618371901111     -0.379100983467770
C       0.980229405324210     -1.405757663678131     -2.335145058936740
H       1.363078896085740     -0.442711049025371     -2.678088653987070
H       0.434233439777440     -1.866991205201431     -3.164376608054930
H       1.804753652694100     -2.067284250418121     -2.070410707689250
22

C      -0.049006598055262      1.853462972752221      0.944951797452721
C      -0.908703651844022      0.753932640955500      1.638876303768257
C      -0.041846743338225     -0.300297251923995      1.957421815059082
H      -1.799931972976702      1.095516195007338      2.224008337617611
C       1.200690557815960     -0.116919687723179      1.270968483492160
H      -0.451347125542850     -1.104468000349422      2.582949072592655
C       1.137651990040262      0.995339050114062      0.526181843134197
H       1.955642636566743     -0.911507060255105      1.266126376524262
H       1.934429654853520      1.488138806084998     -0.074825399531677
H       0.123572190768481      2.644503762653534      1.768693389335944
H      -0.668528283526830      2.417036371285401      0.206681422907830
C      -0.735678172729794     -0.056154308507780     -1.013886908266173
C      -1.715107542182677      0.033748414655040     -0.070041303151248
H      -2.399425525382159      0.887370216598007      0.102418795509460
H      -2.168271343713474     -0.873436619230417      0.413262057347055
C       0.078018685247501     -1.270846074424877     -1.157854812160230
H      -0.521448385392643      0.807995899464326     -1.663909009569105
O      -0.067529793624031     -2.201138608739024     -0.381060902769225
C       1.018703766883541     -1.396953543362227     -2.359402059600427
H       1.411766393329268     -0.443586058265689     -2.754422092308663
H       0.481969414377583     -1.904357507698866     -3.186352556017189
H       1.838001143156310     -2.099624847186573     -2.084252598230659
22

C      -0.063516103968167      1.881542218370147      0.931740705086211
C      -0.916929595745245      0.769759070862510      1.631878356085879
C      -0.084806446207565     -0.319280018092706      1.914180691311596
H      -1.764002914858055      1.096566208283769      2.172575269951729
C       1.201468202498255     -0.148966802782636      1.264095512963044
H      -0.492786740997486     -1.154319695504092      2.511630043578311
C       1.155013446359255      1.015320295622527      0.517258266238170
H       1.944391722434880     -0.936534141269527      1.208615679994420
H       1.956469274711113      1.473494853389550     -0.019653095876055
H       0.067814303708467      2.630251941935283      1.673611921493398
H      -0.646175270861698      2.379216454922161      0.164184156510849
C      -0.762902979429728     -0.069524299165813     -1.027062282226207
C      -1.738314836142554      0.032848802536911     -0.040319560618704
H      -2.340755077985204      0.910688170993852      0.171924774351325
H      -2.178970645437470     -0.820048234805512      0.388280249860090
C       0.113379064497110     -1.271729798053780     -1.162924555483679
H      -0.532345186025784      0.792759799004300     -1.633192456498263
O      -0.025223008826555     -2.199981795637279     -0.380827754377831
C       1.052528418498875     -1.394566754323728     -2.380537753085764
H       1.455742876209128     -0.455943996350910     -2.805842172097862
H       0.499532575196688     -1.927851483938343     -3.184841336101612
H       1.847609948037865     -2.083004919942189     -2.106079142869846
22

C      -0.088592110531872      1.865896835890887      0.921297146916303
C      -0.899154662622953      0.787258175334066      1.608688788552401
C      -0.118190473386329     -0.321335251621040      1.881811919399645
H      -1.844305904965121      1.057990504549134      2.192843836380224
C       1.176153614179450     -0.178477818055307      1.259585305649089
H      -0.404160403563713     -1.226725453506935      2.389602929818456
C       1.162496987978839      1.052389671876029      0.536609662692136
H       1.968072169769712     -0.942139975520023      1.145301041301053
H       2.062322550898331      1.430524443078979     -0.050900058880241
H       0.186321472107801      2.702857919409407      1.682504650156019
H      -0.566554782825795      2.372396871490925      0.026601870279048
C      -0.786085325408671     -0.080690184242356     -1.041693106032817
C      -1.756684102129208      0.040081726992748     -0.008943243066491
H      -2.350692062220109      0.946975064994539      0.046413210328123
H      -2.218027303183010     -0.929402717649130      0.401730234509034
C       0.128222065276444     -1.271230699867815     -1.181201954377231
H      -0.550165293236246      0.786184553167802     -1.690200344410726
O       0.020723312848549     -2.199316992926971     -0.380954223788987
C       1.078888376525603     -1.392896047293238     -2.395429446467163
H       1.480205134355108     -0.479875868610298     -2.820302631772337
H       0.503594699398210     -1.910382657137897     -3.165356407849640
H       1.921373688709973     -2.065498236269601     -2.116512840790032
22

C      -0.092222628599699      1.841927821299289      0.911086902914817
C      -0.908038124584245      0.807109302606254      1.584649160383488
C      -0.115346745097538     -0.319112327323030      1.856246304353539
H      -1.803917246030567      0.961721418147908      2.130219386218795
C       1.134572072259693     -0.173963537664534      1.242447338533609
H      -0.369444424581889     -1.316055434247503      2.309743429468569
C       1.177471019214702      1.073717243827853      0.574915540277141
H       1.929433852519236     -0.898475133455116      1.136623963086424
H       1.998470250385266      1.343558789310928     -0.041916152468559
H       0.277281897337544      2.631156784701627      1.576151092706725
H      -0.450803754389139      2.322368131631988      0.017114685050133
C      -0.801720627205048     -0.093218183832115     -1.053221960294968
C      -1.760590563350504      0.031366932263374      0.010726965958745
H      -2.442844637087624      0.934809703156378     -0.169543179587459
H      -2.175660530515093     -0.858877475262146      0.358902131699825
C       0.121005902997024     -1.265509559145493     -1.200938563032677
H      -0.619646789321815      0.733875103524399     -1.749852178200491
O       0.070119774096843     -2.193371826922186     -0.386956932754028
C       1.102827716490759     -1.395786830934290     -2.391812750564377
H       1.479299312990519     -0.433884085222357     -2.835891704159044
H       0.489961904487975     -1.893738452738150     -3.197519429312879
H       1.949023108319851     -2.023630496053333     -2.139633688367162
22

C      -0.059234554907619      1.813318683481803      0.897133382085248
C      -0.926877531420001      0.805669005521176      1.544198302029702
C      -0.097088208115471     -0.327171598041425      1.844965934084660
H      -1.860203010432364      0.960314445954254      2.134781072117693
C       1.098242496760037     -0.139119311712274      1.212941997150757
H      -0.400262283836721     -1.259000792070513      2.234665758279349
C       1.173207269278830      1.062807398358538      0.627261173265728
H       1.885623078573332     -0.892477483601131      1.172431214685602
H       1.973292560592413      1.367567523992399     -0.093330363687301
H       0.293430861257923      2.634192902945755      1.541113521605161
H      -0.431392288361277      2.331222429757427     -0.014716987068221
C      -0.807203911697462     -0.116087337630797     -1.063563361743162
C      -1.744077529904006      0.048954456500427     -0.002290452074572
H      -2.487410266332929      0.731720672896331     -0.331706887533929
H      -2.217396084701234     -0.910172700055907      0.393634549248627
C       0.100777151976502     -1.262864132568633     -1.209164183625377
H      -0.750263232517105      0.682232740652676     -1.810219870279844
O       0.120515831901978     -2.183274622375911     -0.396130403229175
C       1.111829204339277     -1.384302995175890     -2.386816517270074
H       1.414249147800178     -0.431060272207999     -2.790916216778170
H       0.559791582295088     -1.858532573604800     -3.201573569449419
H       1.983638924360752     -2.033867447884691     -2.154054091859889
22

C      -0.015432938731824      1.806312189844056      0.884629705952030
C      -0.958154138545000      0.777622693651768      1.500731182188736
C      -0.095244756163992     -0.318552546833238      1.840804069583992
H      -1.834516603698947      1.040497658781806      2.107051369066680
C       1.093747818237556     -0.127485875499999      1.194839688302891
H      -0.488172835105131     -1.290473813390402      2.271442301678402
C       1.171485302145979      1.058303370390339      0.644368956178658
H       1.836053588148883     -0.922259551211089      1.194345222857050
H       1.898001474250825      1.414923944751455     -0.051814964104345
H       0.226624173639758      2.665469531068889      1.610648421850793
H      -0.444668065913971      2.319436485620460     -0.013659018344223
C      -0.801734902614222     -0.145979960590363     -1.082114370370660
C      -1.724378521039911      0.047640413290641     -0.026198775249589
H      -2.611425982134780      0.672269539163736     -0.401589007928014
H      -2.165953804712727     -0.857340893397642      0.412795229447295
C       0.089085902501977     -1.261101630094928     -1.216309431640561
H      -0.883516712216567      0.613762875921372     -1.882287297992377
O       0.160324200133258     -2.174074864574670     -0.398049993858559
C       1.106127470733542     -1.364927180949600     -2.380579151380268
H       1.405195698215580     -0.334285743218594     -2.748376874436628
H       0.616839949756328     -1.871284107232052     -3.250414167406946
H       1.967533658282189     -2.010741132096813     -2.149736807410691
22

C       0.002753654884738      1.831462301173982      0.890424375217327
C      -0.984145330109984      0.743653617121210      1.448528906721956
C      -0.128031539166899     -0.318795310153338      1.851327090046091
H      -1.788566020948258      1.149237108962720      2.061024604319414
C       1.119379410421918     -0.165070401496230      1.204190101563782
H      -0.487699240555159     -1.197853914704998      2.294306930471856
C       1.184512215099321      1.078579760304518      0.618121879047529
H       1.841660033785292     -0.968238717903489      1.166564091215275
H       1.966340441707493      1.498928612572980     -0.026495338512397
H       0.091656185492068      2.600187605753446      1.614562707298288
H      -0.448069737353042      2.301718906029200      0.025515957889504
C      -0.797453226597695     -0.164568160218929     -1.111915643115073
C      -1.723577037051413      0.042188634227008     -0.052032330422615
H      -2.573401480108004      0.636285126378778     -0.337486601303286
H      -2.066072011263186     -0.839245218178909      0.466226440812654
C       0.098357411408240     -1.270391026201893     -1.228732265436011
H      -0.936105825422316      0.502070865250735     -1.949053542870671
O       0.185594792155356     -2.169449788396185     -0.394152552518720
C       1.086420846786253     -1.326683995819206     -2.388240415486635
H       1.412302257389923     -0.342175159757704     -2.674092065714465
H       0.649337193758900     -1.851910353409894     -3.241020785150709
H       1.927556575974571     -1.950513567401424     -2.082713899535899
22

C      -0.017583362234597      1.850626567557896      0.904171994845995
C      -0.994574009059795      0.730020101463835      1.382173496130527
C      -0.156291024683074     -0.310569876343013      1.851713521105963
H      -1.796485186341934      1.191626283551828      2.039909651744112
C       1.149057944055523     -0.201994950563608      1.224461418371515
H      -0.497135084606496     -1.255019499546536      2.405206341961129
C       1.216767084691565      1.093295994733187      0.575738099755880
H       1.915130486466541     -1.015769889106233      1.124705986440202
H       2.091182712065967      1.515721519884586      0.022716396377254
H      -0.001588145190195      2.653391398302117      1.735021039081302
H      -0.453772469509493      2.344575476123007     -0.005753585707010
C      -0.801068036013099     -0.175610037689430     -1.146292186209930
C      -1.722279929119756      0.025470761084985     -0.070766548991632
H      -2.576994310253237      0.716883330322790     -0.238718219985820
H      -2.028996188054573     -0.926481595265313      0.494080322118904
C       0.120516808214694     -1.286965193839059     -1.240233357927615
H      -0.905704345348565      0.429018846604258     -2.083948010846208
O       0.202032340335288     -2.170474757002416     -0.383509887301271
C       1.060215268162164     -1.291481375201451     -2.391272197259509
H       1.455660154431337     -0.285443438131892     -2.659110649357246
H       0.644513606309386     -1.812156780617097     -3.262298847742640
H       1.908220167059754     -1.874858219726890     -1.987497529756053
22

C      -0.055002020638050      1.864779193066079      0.915899313382293
C      -0.996662685965955      0.740497370853331      1.317827662200661
C      -0.159371378243667     -0.320610320268972      1.848857687302189
H      -1.778238956978005      1.086852092906914      1.942447016268227
C       1.168059860827224     -0.197994495362346      1.243754574239545
H      -0.454219381536876     -1.163701011773962      2.428131978498505
C       1.253271252411296      1.080051212518419      0.550536993805458
H       1.925192309375660     -0.940062401512202      1.138669902784614
H       2.150612196413363      1.471624997982328      0.123802801140108
H      -0.009248730963123      2.578344576867938      1.727111399070386
H      -0.396796736851444      2.393923781501867      0.031576800846706
C      -0.809922867044319     -0.182134129241836     -1.194326435647826
C      -1.728553964246351     -0.005872194106316     -0.075365234464653
H      -2.543753636850299      0.762656146194026     -0.184513835145278
H      -2.010584682441701     -0.904948871153674      0.360197513784425
C       0.125684907476247     -1.301009029110515     -1.236917606892507
H      -0.840551610664504      0.360199581745289     -2.125992150366763
O       0.213311014963867     -2.173535061155386     -0.371544123421323
C       1.052590557669091     -1.260251434369255     -2.392174544651013
H       1.422966032102842     -0.259774234885534     -2.673259190342140
H       0.628070396018811     -1.750381154440518     -3.297582394657134
H       1.903021452520131     -1.813757274569930     -1.994636759495173
22

C      -0.075016337278421      1.855791420070608      0.906275684063066
C      -0.977705426644985      0.737992832080878      1.253859699885573
C      -0.125335146430161     -0.321571848535136      1.825009306088083
H      -1.906170169982466      0.953388927687084      1.890661525195176
C       1.157287573453382     -0.146991787397550      1.262651527300033
H      -0.465065259201541     -1.151001575067404      2.476023695589005
C       1.261514101039904      1.043411904198974      0.564258690659107
H       1.985533814434573     -0.920434402268446      1.228902213429768
H       2.240467222303775      1.479353535647739      0.161287419610569
H       0.069342463294961      2.549717438342748      1.776729987347063
H      -0.360876938501283      2.490992710132387      0.036848269646697
C      -0.821629399916660     -0.198175728328691     -1.229401852026188
C      -1.724664351149070     -0.009669652511271     -0.093077469418325
H      -2.493835064036529      0.703358114987128     -0.224761713755056
H      -2.091350347075981     -1.043602762238313      0.284832338956688
C       0.111604406735811     -1.303586363246793     -1.223336481453219
H      -0.823171080526889      0.404273145651670     -2.160510810999836
O       0.216267996116671     -2.179226800078912     -0.360782608586565
C       1.066361273961247     -1.235412725897796     -2.396475618004660
H       1.312860509950827     -0.218062882448468     -2.686858692571888
H       0.615307194016973     -1.650322159275398     -3.285458021709589
H       1.975439760253750     -1.807699157951861     -2.125222024400897
